<?xml version="1.0" encoding="UTF-8"?>

<!-- generated on 2025-11-03 12:35:44.341199 by osmWebWizard.py v1_19_0+0000-baa66a0f364
<configuration>
    <net-file value="C:\Users\galad\Sumo\2025-11-03-12-35-35\osm.net.xml.gz"/>
    <output-trip-file value="C:\Users\galad\Sumo\2025-11-03-12-35-35\osm.passenger.trips.xml"/>
    <route-file value="C:\Users\galad\Sumo\2025-11-03-12-35-35\osm.passenger.rou.xml"/>
    <prefix value="veh"/>
    <trip-attributes value="departLane=&quot;best&quot;"/>
    <fringe-start-attributes value="departSpeed=&quot;max&quot;"/>
    <vehicle-class value="passenger"/>
    <lanes value="True"/>
    <fringe-factor value="10"/>
    <allow-fringe.min-length value="1000.0"/>
    <via-edge-types value="highway.motorway,highway.motorway_link,highway.trunk_link,highway.primary_link,highway.secondary_link,highway.tertiary_link"/>
    <min-distance value="300.0"/>
    <min-distance.fringe value="10.0"/>
    <remove-loops value="True"/>
    <validate value="True"/>
    <insertion-density value="20.0"/>
</configuration>
-->

<!-- generated on 2025-11-03 12:35:44 by Eclipse SUMO duarouter Version 1.19.0
<configuration xmlns:xsi="http://www.w3.org/2001/XMLSchema-instance" xsi:noNamespaceSchemaLocation="http://sumo.dlr.de/xsd/duarouterConfiguration.xsd">

    <input>
        <net-file value="C:\Users\galad\Sumo\2025-11-03-12-35-35\osm.net.xml.gz"/>
        <route-files value="C:\Users\galad\Sumo\2025-11-03-12-35-35\osm.passenger.trips.xml"/>
    </input>

    <output>
        <output-file value="C:\Users\galad\Sumo\2025-11-03-12-35-35\osm.passenger.trips.xml.tmp"/>
        <alternatives-output value="NUL"/>
        <write-trips value="true"/>
    </output>

    <processing>
        <remove-loops value="true"/>
    </processing>

    <time>
        <begin value="0.0"/>
        <end value="3600.0"/>
    </time>

    <report>
        <no-warnings value="true"/>
        <ignore-errors value="true"/>
        <no-step-log value="true"/>
    </report>

</configuration>
-->

<routes xmlns:xsi="http://www.w3.org/2001/XMLSchema-instance" xsi:noNamespaceSchemaLocation="http://sumo.dlr.de/xsd/routes_file.xsd">
    <vType id="veh_passenger" vClass="passenger"/>
    <trip id="veh0" type="veh_passenger" depart="0.00" departLane="best" from="36054475#4" to="-31756240#4"/>
    <trip id="veh1" type="veh_passenger" depart="5.69" departLane="best" from="464465186#0" to="464465177#1"/>
    <trip id="veh2" type="veh_passenger" depart="11.38" departLane="best" from="59358759#2" to="36054475#5"/>
    <trip id="veh3" type="veh_passenger" depart="17.07" departLane="best" departSpeed="max" from="126774193#0" to="-31756240#6"/>
    <trip id="veh4" type="veh_passenger" depart="22.75" departLane="best" from="-31756240#4" to="59358758#0"/>
    <trip id="veh5" type="veh_passenger" depart="28.44" departLane="best" from="-59358779#1" to="36054714#1"/>
    <trip id="veh6" type="veh_passenger" depart="34.13" departLane="best" departSpeed="max" from="543470383#0" to="464465186#2"/>
    <trip id="veh7" type="veh_passenger" depart="39.82" departLane="best" departSpeed="max" from="1167293941#0" to="-36054717#1"/>
    <trip id="veh8" type="veh_passenger" depart="45.51" departLane="best" from="543470383#4" to="36054717#1"/>
    <trip id="veh9" type="veh_passenger" depart="51.20" departLane="best" departSpeed="max" from="543470383#0" to="464465186#2"/>
    <trip id="veh10" type="veh_passenger" depart="56.89" departLane="best" from="23415702#3" to="-693606163#1"/>
    <trip id="veh11" type="veh_passenger" depart="62.57" departLane="best" from="1167293941#1" to="36054478#5"/>
    <trip id="veh12" type="veh_passenger" depart="68.26" departLane="best" departSpeed="max" from="543470383#0" to="-36054773#0"/>
    <trip id="veh13" type="veh_passenger" depart="73.95" departLane="best" from="-59358695#2" to="36054711#3"/>
    <trip id="veh14" type="veh_passenger" depart="79.64" departLane="best" from="-36054716#1" to="330031075#1"/>
    <trip id="veh15" type="veh_passenger" depart="85.33" departLane="best" from="59358782#0" to="-59358897#1"/>
    <trip id="veh16" type="veh_passenger" depart="91.02" departLane="best" from="36054475#2" to="59358819#1"/>
    <trip id="veh17" type="veh_passenger" depart="96.71" departLane="best" from="-36054478#4" to="-59358878"/>
    <trip id="veh18" type="veh_passenger" depart="102.40" departLane="best" from="36054475#2" to="23415702#2"/>
    <trip id="veh19" type="veh_passenger" depart="108.08" departLane="best" departSpeed="max" from="1167293941#0" to="-59358759#2"/>
    <trip id="veh20" type="veh_passenger" depart="113.77" departLane="best" from="-59358869#1" to="59358848#6"/>
    <trip id="veh21" type="veh_passenger" depart="119.46" departLane="best" from="36054773#0" to="464465186#2"/>
    <trip id="veh22" type="veh_passenger" depart="125.15" departLane="best" from="-693606163#6" to="464465177#1"/>
    <trip id="veh23" type="veh_passenger" depart="130.84" departLane="best" from="27227507#3" to="464465186#0"/>
    <trip id="veh24" type="veh_passenger" depart="136.53" departLane="best" from="543470383#3" to="492431226#2"/>
    <trip id="veh25" type="veh_passenger" depart="142.22" departLane="best" from="59358782#0" to="-31756240#6"/>
    <trip id="veh26" type="veh_passenger" depart="147.90" departLane="best" from="-59358819#1" to="27227507#6"/>
    <trip id="veh27" type="veh_passenger" depart="153.59" departLane="best" from="27227507#4" to="59358848#9"/>
    <trip id="veh28" type="veh_passenger" depart="159.28" departLane="best" from="31756240#5" to="59358779#0"/>
    <trip id="veh29" type="veh_passenger" depart="164.97" departLane="best" departSpeed="max" from="126774193#0" to="59358779#1"/>
    <trip id="veh30" type="veh_passenger" depart="170.66" departLane="best" from="-693606163#9" to="343842757#2"/>
    <trip id="veh31" type="veh_passenger" depart="176.35" departLane="best" from="-36054475#6" to="330031075#1"/>
    <trip id="veh32" type="veh_passenger" depart="182.04" departLane="best" from="36054710#0" to="464465177#1"/>
    <trip id="veh33" type="veh_passenger" depart="187.72" departLane="best" from="-693606163#8" to="36054475#3"/>
    <trip id="veh34" type="veh_passenger" depart="193.41" departLane="best" from="59358897#1" to="59358695#2"/>
    <trip id="veh35" type="veh_passenger" depart="199.10" departLane="best" from="-217573744#1" to="464465186#2"/>
    <trip id="veh36" type="veh_passenger" depart="204.79" departLane="best" from="36054711#1" to="36054475#6"/>
    <trip id="veh37" type="veh_passenger" depart="210.48" departLane="best" from="-59358869#0" to="464465177#1"/>
    <trip id="veh38" type="veh_passenger" depart="216.17" departLane="best" from="-36054710#1" to="27227507#6"/>
    <trip id="veh39" type="veh_passenger" depart="221.86" departLane="best" from="-142862540#1" to="-59358873#0"/>
    <trip id="veh40" type="veh_passenger" depart="227.55" departLane="best" departSpeed="max" from="23415702#0" to="59358695#2"/>
    <trip id="veh41" type="veh_passenger" depart="233.23" departLane="best" from="-693606163#11" to="464465177#1"/>
    <trip id="veh42" type="veh_passenger" depart="238.92" departLane="best" from="330032677#1" to="-36054717#0"/>
    <trip id="veh43" type="veh_passenger" depart="244.61" departLane="best" from="492431225#0" to="36054478#1"/>
    <trip id="veh44" type="veh_passenger" depart="250.30" departLane="best" from="23415702#2" to="36054475#3"/>
    <trip id="veh45" type="veh_passenger" depart="255.99" departLane="best" from="-142862540#1" to="1167293941#1"/>
    <trip id="veh46" type="veh_passenger" depart="261.68" departLane="best" from="59358758#0" to="492431226#3"/>
    <trip id="veh47" type="veh_passenger" depart="267.37" departLane="best" from="-693606163#6" to="-331050303#0"/>
    <trip id="veh48" type="veh_passenger" depart="273.05" departLane="best" from="-36054475#4" to="31756240#9"/>
    <trip id="veh49" type="veh_passenger" depart="278.74" departLane="best" from="-350579487#2" to="492431225#0"/>
    <trip id="veh50" type="veh_passenger" depart="284.43" departLane="best" departSpeed="max" from="23415702#0" to="36054478#4"/>
    <trip id="veh51" type="veh_passenger" depart="290.12" departLane="best" departSpeed="max" from="126774193#0" to="-59358759#4"/>
    <trip id="veh52" type="veh_passenger" depart="295.81" departLane="best" from="23415702#4" to="464465186#2"/>
    <trip id="veh53" type="veh_passenger" depart="301.50" departLane="best" from="-693606163#8" to="464465177#1"/>
    <trip id="veh54" type="veh_passenger" depart="307.19" departLane="best" departSpeed="max" from="126774193#0" to="350579487#3"/>
    <trip id="veh55" type="veh_passenger" depart="312.87" departLane="best" from="-36054710#5" to="-59358780#1"/>
    <trip id="veh56" type="veh_passenger" depart="318.56" departLane="best" departSpeed="max" from="1167293941#0" to="36054714#1"/>
    <trip id="veh57" type="veh_passenger" depart="324.25" departLane="best" from="-59358782#1" to="59358779#1"/>
    <trip id="veh58" type="veh_passenger" depart="329.94" departLane="best" from="-350579487#3" to="464465177#1"/>
    <trip id="veh59" type="veh_passenger" depart="335.63" departLane="best" from="-59358848#1" to="464465177#1"/>
    <trip id="veh60" type="veh_passenger" depart="341.32" departLane="best" from="-59358759#5" to="-36054711#4"/>
    <trip id="veh61" type="veh_passenger" depart="347.01" departLane="best" departSpeed="max" from="543470383#0" to="-59358755#0"/>
    <trip id="veh62" type="veh_passenger" depart="352.69" departLane="best" from="-36054478#2" to="27227507#6"/>
    <trip id="veh63" type="veh_passenger" depart="358.38" departLane="best" departSpeed="max" from="126774193#0" to="-31756240#2"/>
    <trip id="veh64" type="veh_passenger" depart="364.07" departLane="best" from="36054774#0" to="464465177#1"/>
    <trip id="veh65" type="veh_passenger" depart="369.76" departLane="best" departSpeed="max" from="126774193#0" to="126774193#2"/>
    <trip id="veh66" type="veh_passenger" depart="375.45" departLane="best" from="-59358755#0" to="27227507#6"/>
    <trip id="veh67" type="veh_passenger" depart="381.14" departLane="best" departSpeed="max" from="126774193#0" to="-59358878"/>
    <trip id="veh68" type="veh_passenger" depart="386.83" departLane="best" from="27227507#2" to="-330032677#0"/>
    <trip id="veh69" type="veh_passenger" depart="392.52" departLane="best" from="-693606163#9" to="543470383#2"/>
    <trip id="veh70" type="veh_passenger" depart="398.20" departLane="best" from="59358897#0" to="59358848#2"/>
    <trip id="veh71" type="veh_passenger" depart="403.89" departLane="best" from="543470383#4" to="-36054720#0"/>
    <trip id="veh72" type="veh_passenger" depart="409.58" departLane="best" departSpeed="max" from="23415702#0" to="-59358759#5"/>
    <trip id="veh73" type="veh_passenger" depart="415.27" departLane="best" departSpeed="max" from="126774193#0" to="-331050303#0"/>
    <trip id="veh74" type="veh_passenger" depart="420.96" departLane="best" from="1167293941#1" to="-693606163#4"/>
    <trip id="veh75" type="veh_passenger" depart="426.65" departLane="best" from="-59358869#0" to="492431226#3"/>
    <trip id="veh76" type="veh_passenger" depart="432.34" departLane="best" from="-142862540#1" to="27227507#6"/>
    <trip id="veh77" type="veh_passenger" depart="438.02" departLane="best" from="27227507#3" to="464465186#2"/>
    <trip id="veh78" type="veh_passenger" depart="443.71" departLane="best" from="-36054717#1" to="693606163#11"/>
    <trip id="veh79" type="veh_passenger" depart="449.40" departLane="best" from="59358897#0" to="36054711#3"/>
    <trip id="veh80" type="veh_passenger" depart="455.09" departLane="best" from="331050303#0" to="36054711#5"/>
    <trip id="veh81" type="veh_passenger" depart="460.78" departLane="best" departSpeed="max" from="23415702#0" to="543470383#5"/>
    <trip id="veh82" type="veh_passenger" depart="466.47" departLane="best" from="-36054717#2" to="59358878"/>
    <trip id="veh83" type="veh_passenger" depart="472.16" departLane="best" from="36054475#2" to="-59358743#1"/>
    <trip id="veh84" type="veh_passenger" depart="477.84" departLane="best" from="-31756240#9" to="464465177#1"/>
    <trip id="veh85" type="veh_passenger" depart="483.53" departLane="best" from="-59358835#1" to="-36054710#5"/>
    <trip id="veh86" type="veh_passenger" depart="489.22" departLane="best" departSpeed="max" from="126774193#0" to="36054711#5"/>
    <trip id="veh87" type="veh_passenger" depart="494.91" departLane="best" from="23415702#1" to="59358848#5"/>
    <trip id="veh88" type="veh_passenger" depart="500.60" departLane="best" from="59358759#0" to="464465186#2"/>
    <trip id="veh89" type="veh_passenger" depart="506.29" departLane="best" from="36054710#4" to="-693606163#3"/>
    <trip id="veh90" type="veh_passenger" depart="511.98" departLane="best" from="-693606163#9" to="492431224#0"/>
    <trip id="veh91" type="veh_passenger" depart="517.66" departLane="best" from="-350579487#3" to="27227507#6"/>
    <trip id="veh92" type="veh_passenger" depart="523.35" departLane="best" from="-350579487#4" to="-59358759#5"/>
    <trip id="veh93" type="veh_passenger" depart="529.04" departLane="best" departSpeed="max" from="1167293941#0" to="36054717#2"/>
    <trip id="veh94" type="veh_passenger" depart="534.73" departLane="best" from="543470383#2" to="464465186#2"/>
    <trip id="veh95" type="veh_passenger" depart="540.42" departLane="best" from="330038941" to="-693606163#5"/>
    <trip id="veh96" type="veh_passenger" depart="546.11" departLane="best" from="36054478#3" to="-217529762#0"/>
    <trip id="veh97" type="veh_passenger" depart="551.80" departLane="best" departSpeed="max" from="543470383#0" to="693606163#3"/>
    <trip id="veh98" type="veh_passenger" depart="557.49" departLane="best" from="36054710#0" to="59358848#7"/>
    <trip id="veh99" type="veh_passenger" depart="563.17" departLane="best" from="59358873#1" to="36054717#2"/>
    <trip id="veh100" type="veh_passenger" depart="568.86" departLane="best" from="-36054718#2" to="-59358759#0"/>
    <trip id="veh101" type="veh_passenger" depart="574.55" departLane="best" from="36054475#2" to="59358848#9"/>
    <trip id="veh102" type="veh_passenger" depart="580.24" departLane="best" departSpeed="max" from="23415702#0" to="-59358780#0"/>
    <trip id="veh103" type="veh_passenger" depart="585.93" departLane="best" departSpeed="max" from="126774193#0" to="-59358873#2"/>
    <trip id="veh104" type="veh_passenger" depart="591.62" departLane="best" from="36054475#3" to="59358848#9"/>
    <trip id="veh106" type="veh_passenger" depart="602.99" departLane="best" departSpeed="max" from="126774193#0" to="-217529762#1"/>
    <trip id="veh107" type="veh_passenger" depart="608.68" departLane="best" from="-350579487#4" to="59358758#1"/>
    <trip id="veh108" type="veh_passenger" depart="614.37" departLane="best" from="59358780#0" to="36054478#3"/>
    <trip id="veh109" type="veh_passenger" depart="620.06" departLane="best" from="543470383#2" to="36054711#5"/>
    <trip id="veh110" type="veh_passenger" depart="625.75" departLane="best" from="-693606163#6" to="59358779#0"/>
    <trip id="veh111" type="veh_passenger" depart="631.44" departLane="best" departSpeed="max" from="543470383#0" to="59358695#2"/>
    <trip id="veh112" type="veh_passenger" depart="637.13" departLane="best" from="-59358848#4" to="36054478#5"/>
    <trip id="veh113" type="veh_passenger" depart="642.81" departLane="best" departSpeed="max" from="543470383#0" to="-59358759#0"/>
    <trip id="veh114" type="veh_passenger" depart="648.50" departLane="best" departSpeed="max" from="126774193#0" to="36054774#0"/>
    <trip id="veh115" type="veh_passenger" depart="654.19" departLane="best" from="-36054717#1" to="-59358848#3"/>
    <trip id="veh116" type="veh_passenger" depart="659.88" departLane="best" from="-59358695#3" to="693606163#10"/>
    <trip id="veh117" type="veh_passenger" depart="665.57" departLane="best" departSpeed="max" from="543470383#0" to="59358758#1"/>
    <trip id="veh118" type="veh_passenger" depart="671.26" departLane="best" from="-31756240#4" to="464465186#2"/>
    <trip id="veh119" type="veh_passenger" depart="676.95" departLane="best" departSpeed="max" from="1167293941#0" to="-59358848#4"/>
    <trip id="veh120" type="veh_passenger" depart="682.64" departLane="best" departSpeed="max" from="543470383#0" to="59358695#3"/>
    <trip id="veh121" type="veh_passenger" depart="688.32" departLane="best" departSpeed="max" from="543470383#0" to="-59358869#0"/>
    <trip id="veh122" type="veh_passenger" depart="694.01" departLane="best" departSpeed="max" from="543470383#0" to="-36054710#0"/>
    <trip id="veh123" type="veh_passenger" depart="699.70" departLane="best" from="59358755#0" to="543470383#6"/>
    <trip id="veh124" type="veh_passenger" depart="705.39" departLane="best" from="59358780#0" to="492431226#3"/>
    <trip id="veh125" type="veh_passenger" depart="711.08" departLane="best" departSpeed="max" from="543470383#0" to="-59358782#0"/>
    <trip id="veh126" type="veh_passenger" depart="716.77" departLane="best" from="-31756240#3" to="59358755#1"/>
    <trip id="veh127" type="veh_passenger" depart="722.46" departLane="best" departSpeed="max" from="1167293941#0" to="59358695#3"/>
    <trip id="veh128" type="veh_passenger" depart="728.14" departLane="best" from="-693606163#3" to="36054475#5"/>
    <trip id="veh129" type="veh_passenger" depart="733.83" departLane="best" from="-59358848#7" to="-36054710#2"/>
    <trip id="veh130" type="veh_passenger" depart="739.52" departLane="best" from="59358897#1" to="59358695#2"/>
    <trip id="veh131" type="veh_passenger" depart="745.21" departLane="best" from="36054710#0" to="27227507#6"/>
    <trip id="veh132" type="veh_passenger" depart="750.90" departLane="best" from="-36054774#0" to="-693606163#8"/>
    <trip id="veh133" type="veh_passenger" depart="756.59" departLane="best" from="330032677#0" to="343842757#2"/>
    <trip id="veh134" type="veh_passenger" depart="762.28" departLane="best" from="-59358848#6" to="464465186#2"/>
    <trip id="veh135" type="veh_passenger" depart="767.96" departLane="best" from="-142862540#1" to="-59358848#2"/>
    <trip id="veh136" type="veh_passenger" depart="773.65" departLane="best" from="23415702#4" to="464465186#2"/>
    <trip id="veh138" type="veh_passenger" depart="785.03" departLane="best" departSpeed="max" from="1167293941#0" to="350579487#2"/>
    <trip id="veh139" type="veh_passenger" depart="790.72" departLane="best" from="36054710#0" to="492431223#1"/>
    <trip id="veh140" type="veh_passenger" depart="796.41" departLane="best" from="-693606163#8" to="543470383#4"/>
    <trip id="veh141" type="veh_passenger" depart="802.10" departLane="best" from="36054720#0" to="-693606163#3"/>
    <trip id="veh142" type="veh_passenger" depart="807.78" departLane="best" from="-693606163#6" to="27227507#6"/>
    <trip id="veh143" type="veh_passenger" depart="813.47" departLane="best" departSpeed="max" from="126774193#0" to="-693606163#10"/>
    <trip id="veh144" type="veh_passenger" depart="819.16" departLane="best" from="-36054711#2" to="27227507#6"/>
    <trip id="veh145" type="veh_passenger" depart="824.85" departLane="best" from="-59358848#7" to="464465177#1"/>
    <trip id="veh146" type="veh_passenger" depart="830.54" departLane="best" from="-59358779#1" to="-36054720#1"/>
    <trip id="veh147" type="veh_passenger" depart="836.23" departLane="best" from="-693606163#3" to="36054478#4"/>
    <trip id="veh148" type="veh_passenger" depart="841.92" departLane="best" from="-142862540#1" to="-59358897#0"/>
    <trip id="veh149" type="veh_passenger" depart="847.61" departLane="best" departSpeed="max" from="126774193#0" to="36054711#4"/>
    <trip id="veh150" type="veh_passenger" depart="853.29" departLane="best" from="36054478#3" to="31756240#10"/>
    <trip id="veh151" type="veh_passenger" depart="858.98" departLane="best" departSpeed="max" from="23415702#0" to="59358779#1"/>
    <trip id="veh152" type="veh_passenger" depart="864.67" departLane="best" departSpeed="max" from="543470383#0" to="-36054720#1"/>
    <trip id="veh153" type="veh_passenger" depart="870.36" departLane="best" from="-36054475#4" to="350579487#2"/>
    <trip id="veh155" type="veh_passenger" depart="881.74" departLane="best" departSpeed="max" from="543470383#0" to="492431224#0"/>
    <trip id="veh156" type="veh_passenger" depart="887.43" departLane="best" from="36054710#4" to="-59358780#1"/>
    <trip id="veh157" type="veh_passenger" depart="893.11" departLane="best" from="-59358758#0" to="-31756240#4"/>
    <trip id="veh158" type="veh_passenger" depart="898.80" departLane="best" from="-59358848#2" to="-31756240#5"/>
    <trip id="veh159" type="veh_passenger" depart="904.49" departLane="best" departSpeed="max" from="126774193#0" to="464465177#1"/>
    <trip id="veh160" type="veh_passenger" depart="910.18" departLane="best" from="-59358755#2" to="464465186#2"/>
    <trip id="veh161" type="veh_passenger" depart="915.87" departLane="best" departSpeed="max" from="23415702#0" to="-59358848#2"/>
    <trip id="veh162" type="veh_passenger" depart="921.56" departLane="best" from="-36054478#4" to="-217529762#0"/>
    <trip id="veh163" type="veh_passenger" depart="927.25" departLane="best" from="492431224#0" to="492431226#1"/>
    <trip id="veh164" type="veh_passenger" depart="932.93" departLane="best" from="-36054478#6" to="27227507#6"/>
    <trip id="veh165" type="veh_passenger" depart="938.62" departLane="best" from="408152821#1" to="-59358873#2"/>
    <trip id="veh166" type="veh_passenger" depart="944.31" departLane="best" departSpeed="max" from="23415702#0" to="-330032677#0"/>
    <trip id="veh167" type="veh_passenger" depart="950.00" departLane="best" from="164029919#0" to="492431226#3"/>
    <trip id="veh168" type="veh_passenger" depart="955.69" departLane="best" from="36054710#1" to="-693606163#5"/>
    <trip id="veh169" type="veh_passenger" depart="961.38" departLane="best" from="-31756240#9" to="59358869#1"/>
    <trip id="veh170" type="veh_passenger" depart="967.07" departLane="best" from="59358759#2" to="-36054720#0"/>
    <trip id="veh171" type="veh_passenger" depart="972.75" departLane="best" from="-36054718#2" to="-331050303#0"/>
    <trip id="veh172" type="veh_passenger" depart="978.44" departLane="best" departSpeed="max" from="543470383#0" to="36054478#4"/>
    <trip id="veh173" type="veh_passenger" depart="984.13" departLane="best" from="59358759#5" to="464465186#2"/>
    <trip id="veh174" type="veh_passenger" depart="989.82" departLane="best" departSpeed="max" from="23415702#0" to="59358848#8"/>
    <trip id="veh175" type="veh_passenger" depart="995.51" departLane="best" from="-59358848#3" to="464465177#1"/>
    <trip id="veh176" type="veh_passenger" depart="1001.20" departLane="best" from="492431225#5" to="350579487#4"/>
    <trip id="veh177" type="veh_passenger" depart="1006.89" departLane="best" from="-350579487#3" to="-59358873#1"/>
    <trip id="veh178" type="veh_passenger" depart="1012.58" departLane="best" from="36054475#1" to="-59358897#0"/>
    <trip id="veh179" type="veh_passenger" depart="1018.26" departLane="best" from="59358873#0" to="1054124407#2"/>
    <trip id="veh180" type="veh_passenger" depart="1023.95" departLane="best" from="23415702#4" to="-36054714#0"/>
    <trip id="veh181" type="veh_passenger" depart="1029.64" departLane="best" from="-59358782#1" to="464465186#2"/>
    <trip id="veh182" type="veh_passenger" depart="1035.33" departLane="best" departSpeed="max" from="126774193#0" to="36054478#2"/>
    <trip id="veh183" type="veh_passenger" depart="1041.02" departLane="best" departSpeed="max" from="126774193#0" to="-59358759#1"/>
    <trip id="veh184" type="veh_passenger" depart="1046.71" departLane="best" departSpeed="max" from="126774193#0" to="-59358780#0"/>
    <trip id="veh185" type="veh_passenger" depart="1052.40" departLane="best" from="31756240#5" to="464465186#2"/>
    <trip id="veh186" type="veh_passenger" depart="1058.08" departLane="best" from="1167293941#1" to="-217529762#0"/>
    <trip id="veh187" type="veh_passenger" depart="1063.77" departLane="best" departSpeed="max" from="1167293941#0" to="492431224#2"/>
    <trip id="veh188" type="veh_passenger" depart="1069.46" departLane="best" from="543470383#5" to="-59358873#0"/>
    <trip id="veh189" type="veh_passenger" depart="1075.15" departLane="best" departSpeed="max" from="126774193#0" to="492431223#1"/>
    <trip id="veh190" type="veh_passenger" depart="1080.84" departLane="best" from="27227507#1" to="36054717#1"/>
    <trip id="veh191" type="veh_passenger" depart="1086.53" departLane="best" departSpeed="max" from="126774193#0" to="-31756240#5"/>
    <trip id="veh192" type="veh_passenger" depart="1092.22" departLane="best" departSpeed="max" from="126774193#0" to="-36054720#0"/>
    <trip id="veh193" type="veh_passenger" depart="1097.90" departLane="best" departSpeed="max" from="23415702#0" to="-36054711#2"/>
    <trip id="veh194" type="veh_passenger" depart="1103.59" departLane="best" departSpeed="max" from="126774193#0" to="-36054710#4"/>
    <trip id="veh195" type="veh_passenger" depart="1109.28" departLane="best" from="-31756240#5" to="464465177#1"/>
    <trip id="veh196" type="veh_passenger" depart="1114.97" departLane="best" from="-36054711#5" to="-31756240#1"/>
    <trip id="veh197" type="veh_passenger" depart="1120.66" departLane="best" from="330032677#0" to="27227507#1"/>
    <trip id="veh198" type="veh_passenger" depart="1126.35" departLane="best" from="492431225#0" to="492431226#1"/>
    <trip id="veh199" type="veh_passenger" depart="1132.04" departLane="best" from="492431224#0" to="492431226#3"/>
    <trip id="veh200" type="veh_passenger" depart="1137.73" departLane="best" from="-59358848#5" to="36054475#3"/>
    <trip id="veh201" type="veh_passenger" depart="1143.41" departLane="best" from="-693606163#9" to="-164029919#0"/>
    <trip id="veh202" type="veh_passenger" depart="1149.10" departLane="best" from="36054478#2" to="492431226#3"/>
    <trip id="veh203" type="veh_passenger" depart="1154.79" departLane="best" from="36054478#2" to="492431224#2"/>
    <trip id="veh204" type="veh_passenger" depart="1160.48" departLane="best" from="-31756240#2" to="-36054717#0"/>
    <trip id="veh205" type="veh_passenger" depart="1166.17" departLane="best" from="36054711#1" to="464465177#1"/>
    <trip id="veh206" type="veh_passenger" depart="1171.86" departLane="best" from="27227507#5" to="59358779#0"/>
    <trip id="veh207" type="veh_passenger" depart="1177.55" departLane="best" from="36054715" to="492431224#2"/>
    <trip id="veh208" type="veh_passenger" depart="1183.23" departLane="best" from="1167298926#0" to="-36054710#2"/>
    <trip id="veh209" type="veh_passenger" depart="1188.92" departLane="best" departSpeed="max" from="543470383#0" to="59358884#0"/>
    <trip id="veh210" type="veh_passenger" depart="1194.61" departLane="best" from="36054710#0" to="-31756240#4"/>
    <trip id="veh211" type="veh_passenger" depart="1200.30" departLane="best" from="-693606163#7" to="464465177#1"/>
    <trip id="veh212" type="veh_passenger" depart="1205.99" departLane="best" from="59358873#2" to="27227507#4"/>
    <trip id="veh213" type="veh_passenger" depart="1211.68" departLane="best" from="36054718#1" to="36054475#1"/>
    <trip id="veh214" type="veh_passenger" depart="1217.37" departLane="best" from="-36054711#5" to="464465177#1"/>
    <trip id="veh215" type="veh_passenger" depart="1223.05" departLane="best" from="543470383#5" to="36054717#0"/>
    <trip id="veh216" type="veh_passenger" depart="1228.74" departLane="best" departSpeed="max" from="543470383#0" to="142862540#1"/>
    <trip id="veh217" type="veh_passenger" depart="1234.43" departLane="best" departSpeed="max" from="126774193#0" to="23415702#3"/>
    <trip id="veh218" type="veh_passenger" depart="1240.12" departLane="best" departSpeed="max" from="23415702#0" to="126774193#3"/>
    <trip id="veh219" type="veh_passenger" depart="1245.81" departLane="best" from="543470383#5" to="492431226#3"/>
    <trip id="veh220" type="veh_passenger" depart="1251.50" departLane="best" from="-36054478#6" to="59358878"/>
    <trip id="veh221" type="veh_passenger" depart="1257.19" departLane="best" from="36054475#2" to="492431226#3"/>
    <trip id="veh222" type="veh_passenger" depart="1262.87" departLane="best" from="36054717#0" to="27227507#6"/>
    <trip id="veh223" type="veh_passenger" depart="1268.56" departLane="best" from="464465186#0" to="59358884#1"/>
    <trip id="veh224" type="veh_passenger" depart="1274.25" departLane="best" from="59358873#0" to="492431226#3"/>
    <trip id="veh225" type="veh_passenger" depart="1279.94" departLane="best" from="-59358869#1" to="543470383#5"/>
    <trip id="veh226" type="veh_passenger" depart="1285.63" departLane="best" departSpeed="max" from="543470383#0" to="36054475#5"/>
    <trip id="veh227" type="veh_passenger" depart="1291.32" departLane="best" from="543470383#5" to="59358695#3"/>
    <trip id="veh228" type="veh_passenger" depart="1297.01" departLane="best" from="-59358759#4" to="492431226#3"/>
    <trip id="veh229" type="veh_passenger" depart="1302.70" departLane="best" departSpeed="max" from="1167293941#0" to="59358758#0"/>
    <trip id="veh230" type="veh_passenger" depart="1308.38" departLane="best" from="-36054716#0" to="-59358873#2"/>
    <trip id="veh231" type="veh_passenger" depart="1314.07" departLane="best" from="-36054475#4" to="464465186#2"/>
    <trip id="veh232" type="veh_passenger" depart="1319.76" departLane="best" departSpeed="max" from="23415702#0" to="492431224#6"/>
    <trip id="veh233" type="veh_passenger" depart="1325.45" departLane="best" from="-36054711#5" to="464465177#1"/>
    <trip id="veh234" type="veh_passenger" depart="1331.14" departLane="best" from="36054478#1" to="-59358780#0"/>
    <trip id="veh235" type="veh_passenger" depart="1336.83" departLane="best" from="-36054711#5" to="-693606163#5"/>