<?xml version="1.0" encoding="UTF-8"?>

<!-- generated on 2025-11-03 12:35:42.969123 by osmWebWizard.py v1_19_0+0000-baa66a0f364
<configuration>
    <net-file value="C:\Users\galad\Sumo\2025-11-03-12-35-35\osm.net.xml.gz"/>
    <output-trip-file value="C:\Users\galad\Sumo\2025-11-03-12-35-35\osm.bus.trips.xml"/>
    <route-file value="C:\Users\galad\Sumo\2025-11-03-12-35-35\osm.bus.rou.xml"/>
    <prefix value="bus"/>
    <trip-attributes value="departLane=&quot;best&quot;"/>
    <fringe-start-attributes value="departSpeed=&quot;max&quot;"/>
    <vehicle-class value="bus"/>
    <fringe-factor value="2"/>
    <vclass value="bus"/>
    <via-edge-types value="highway.motorway,highway.motorway_link,highway.trunk_link,highway.primary_link,highway.secondary_link,highway.tertiary_link"/>
    <min-distance value="600.0"/>
    <min-distance.fringe value="10.0"/>
    <remove-loops value="True"/>
    <validate value="True"/>
    <insertion-density value="2.0"/>
</configuration>
-->

<!-- generated on 2025-11-03 12:35:42 by Eclipse SUMO duarouter Version 1.19.0
<configuration xmlns:xsi="http://www.w3.org/2001/XMLSchema-instance" xsi:noNamespaceSchemaLocation="http://sumo.dlr.de/xsd/duarouterConfiguration.xsd">

    <input>
        <net-file value="C:\Users\galad\Sumo\2025-11-03-12-35-35\osm.net.xml.gz"/>
        <route-files value="C:\Users\galad\Sumo\2025-11-03-12-35-35\osm.bus.trips.xml"/>
    </input>

    <output>
        <output-file value="C:\Users\galad\Sumo\2025-11-03-12-35-35\osm.bus.trips.xml.tmp"/>
        <alternatives-output value="NUL"/>
        <write-trips value="true"/>
    </output>

    <processing>
        <remove-loops value="true"/>
    </processing>

    <time>
        <begin value="0.0"/>
        <end value="3600.0"/>
    </time>

    <report>
        <no-warnings value="true"/>
        <ignore-errors value="true"/>
        <no-step-log value="true"/>
    </report>

</configuration>
-->

<routes xmlns:xsi="http://www.w3.org/2001/XMLSchema-instance" xsi:noNamespaceSchemaLocation="http://sumo.dlr.de/xsd/routes_file.xsd">
    <vType id="bus_bus" vClass="bus" color="0,255,0"/>
    <trip id="bus0" type="bus_bus" depart="0.00" departLane="best" from="-36054720#0" to="27227507#6"/>
    <trip id="bus1" type="bus_bus" depart="57.25" departLane="best" from="-59358695#2" to="-164029919#0"/>
    <trip id="bus2" type="bus_bus" depart="114.51" departLane="best" from="543470383#6" to="464465177#1"/>
    <trip id="bus3" type="bus_bus" depart="171.76" departLane="best" from="-31756240#3" to="693606163#11"/>
    <trip id="bus4" type="bus_bus" depart="229.02" departLane="best" from="-59358884#0" to="330031075#1"/>
    <trip id="bus5" type="bus_bus" depart="286.27" departLane="best" from="-59358873#2" to="-36054717#0"/>
    <trip id="bus6" type="bus_bus" depart="343.53" departLane="best" from="36054711#1" to="464465177#1"/>
    <trip id="bus7" type="bus_bus" depart="400.78" departLane="best" from="59358759#0" to="492431226#1"/>
    <trip id="bus8" type="bus_bus" depart="458.04" departLane="best" from="-36054717#1" to="-59358873#2"/>
    <trip id="bus9" type="bus_bus" depart="515.29" departLane="best" from="36054710#1" to="-693606163#10"/>
    <trip id="bus10" type="bus_bus" depart="572.55" departLane="best" from="-59358758#1" to="-59358750#0"/>
    <trip id="bus11" type="bus_bus" depart="629.80" departLane="best" from="-330030512#2" to="59358758#0"/>
    <trip id="bus12" type="bus_bus" depart="687.05" departLane="best" from="-693606163#11" to="-36054720#0"/>
    <trip id="bus13" type="bus_bus" depart="744.31" departLane="best" from="-330031075#1" to="59358884#1"/>
    <trip id="bus14" type="bus_bus" depart="801.56" departLane="best" departSpeed="max" from="126774193#0" to="59358884#1"/>
    <trip id="bus15" type="bus_bus" depart="858.82" departLane="best" from="-59358780#1" to="-36054710#0"/>
    <trip id="bus16" type="bus_bus" depart="916.07" departLane="best" from="492431224#6" to="31756240#8"/>
    <trip id="bus17" type="bus_bus" depart="973.33" departLane="best" from="-142862540#1" to="-59358848#2"/>
    <trip id="bus18" type="bus_bus" depart="1030.58" departLane="best" from="217529762#1" to="330030512#5"/>
    <trip id="bus19" type="bus_bus" depart="1087.84" departLane="best" from="-693606163#9" to="-36054717#1"/>
    <trip id="bus20" type="bus_bus" depart="1145.09" departLane="best" from="-330032677#1" to="36054478#5"/>
    <trip id="bus21" type="bus_bus" depart="1202.35" departLane="best" from="59358873#0" to="343842757#1"/>
    <trip id="bus22" type="bus_bus" depart="1259.60" departLane="best" from="217529762#0" to="492431226#3"/>
    <trip id="bus24" type="bus_bus" depart="1374.11" departLane="best" from="36054714#0" to="142862540#1"/>
    <trip id="bus25" type="bus_bus" depart="1431.36" departLane="best" from="-59358758#1" to="492431226#3"/>
    <trip id="bus26" type="bus_bus" depart="1488.62" departLane="best" from="331050303#0" to="36054711#5"/>
    <trip id="bus27" type="bus_bus" depart="1545.87" departLane="best" from="-330032677#1" to="-36054717#1"/>
    <trip id="bus28" type="bus_bus" depart="1603.13" departLane="best" from="-59358873#2" to="-36054710#2"/>
    <trip id="bus29" type="bus_bus" depart="1660.38" departLane="best" from="-59358755#2" to="36054717#2"/>
    <trip id="bus30" type="bus_bus" depart="1717.64" departLane="best" from="36054710#0" to="-217529762#0"/>
    <trip id="bus31" type="bus_bus" depart="1774.89" departLane="best" from="36054475#2" to="330031075#1"/>
    <trip id="bus32" type="bus_bus" depart="1832.15" departLane="best" departSpeed="max" from="23415702#0" to="-59358848#4"/>
    <trip id="bus33" type="bus_bus" depart="1889.40" departLane="best" from="-142862540#1" to="492431225#3"/>
    <trip id="bus34" type="bus_bus" depart="1946.65" departLane="best" from="-31756240#11" to="464465186#1"/>
    <trip id="bus35" type="bus_bus" depart="2003.91" departLane="best" from="-31756240#11" to="-36054714#1"/>
    <trip id="bus36" type="bus_bus" depart="2061.16" departLane="best" from="-36054478#4" to="693606163#11"/>
    <trip id="bus37" type="bus_bus" depart="2118.42" departLane="best" from="-59358755#1" to="-36054720#0"/>
    <trip id="bus38" type="bus_bus" depart="2175.67" departLane="best" from="-142862540#1" to="59358848#9"/>
    <trip id="bus39" type="bus_bus" depart="2232.93" departLane="best" from="464465186#0" to="36054711#4"/>
    <trip id="bus40" type="bus_bus" depart="2290.18" departLane="best" from="-36054717#2" to="-59358780#1"/>
    <trip id="bus41" type="bus_bus" depart="2347.44" departLane="best" from="-59358819#1" to="-693606163#5"/>
    <trip id="bus42" type="bus_bus" depart="2404.69" departLane="best" from="-59358780#1" to="330030512#5"/>
    <trip id="bus43" type="bus_bus" depart="2461.95" departLane="best" from="-142862540#1" to="59358779#0"/>
    <trip id="bus44" type="bus_bus" depart="2519.20" departLane="best" from="-693606163#6" to="36054478#5"/>
    <trip id="bus45" type="bus_bus" depart="2576.45" departLane="best" from="-59358848#1" to="36054475#6"/>
    <trip id="bus46" type="bus_bus" depart="2633.71" departLane="best" from="59358755#1" to="330030512#5"/>
    <trip id="bus47" type="bus_bus" depart="2690.96" departLane="best" from="59358848#2" to="464465186#2"/>
    <trip id="bus48" type="bus_bus" depart="2748.22" departLane="best" from="-36054475#6" to="-59358759#1"/>
    <trip id="bus49" type="bus_bus" depart="2805.47" departLane="best" from="-693606163#4" to="31756240#9"/>
    <trip id="bus50" type="bus_bus" depart="2862.73" departLane="best" from="331050303#0" to="36054717#0"/>
    <trip id="bus51" type="bus_bus" depart="2919.98" departLane="best" from="-59358884#1" to="-164029919#0"/>
    <trip id="bus52" type="bus_bus" depart="2977.24" departLane="best" from="-31756240#8" to="59358884#1"/>
    <trip id="bus53" type="bus_bus" depart="3034.49" departLane="best" from="-59358755#0" to="-343842757#1"/>
    <trip id="bus54" type="bus_bus" depart="3091.75" departLane="best" from="36054710#0" to="492431224#2"/>
    <trip id="bus55" type="bus_bus" depart="3149.00" departLane="best" from="-59358819#1" to="-36054714#0"/>
    <trip id="bus56" type="bus_bus" depart="3206.25" departLane="best" from="-36054717#1" to="-330038941"/>
    <trip id="bus57" type="bus_bus" depart="3263.51" departLane="best" from="-36054475#5" to="-693606163#5"/>
    <trip id="bus58" type="bus_bus" depart="3320.76" departLane="best" from="59358755#1" to="-343842757#2"/>
    <trip id="bus59" type="bus_bus" depart="3378.02" departLane="best" departSpeed="max" from="23415702#0" to="492431224#5"/>
    <trip id="bus60" type="bus_bus" depart="3435.27" departLane="best" from="331050303#0" to="492431226#2"/>
    <trip id="bus61" type="bus_bus" depart="3492.53" departLane="best" from="-59358755#0" to="36054475#5"/>
    <trip id="bus62" type="bus_bus" depart="3549.78" departLane="best" departSpeed="max" from="23415702#0" to="464465177#1"/>
</routes>
