<!-- vehicle_colors.add.xml removed; color attributes embedded in trip vType definitions -->
<additional xmlns:xsi="http://www.w3.org/2001/XMLSchema-instance" xsi:noNamespaceSchemaLocation="http://sumo.dlr.de/xsd/additional_file.xsd">
