<?xml version="1.0" encoding="UTF-8"?>

<!-- generated on 2025-11-03 12:35:41 by Eclipse SUMO polyconvert Version 1.19.0
<configuration xmlns:xsi="http://www.w3.org/2001/XMLSchema-instance" xsi:noNamespaceSchemaLocation="http://sumo.dlr.de/xsd/polyconvertConfiguration.xsd">

    <input>
        <net-file value="osm.net.xml.gz"/>
        <osm-files value="osm_bbox.osm.xml.gz"/>
        <osm.keep-full-type value="true"/>
        <type-file value="${SUMO_HOME}/data/typemap/osmPolyconvert.typ.xml"/>
    </input>

    <output>
        <output-file value="osm.poly.xml.gz"/>
    </output>

    <report>
        <verbose value="true"/>
    </report>

</configuration>
-->

<additional xmlns:xsi="http://www.w3.org/2001/XMLSchema-instance" xsi:noNamespaceSchemaLocation="http://sumo.dlr.de/xsd/additional_file.xsd">
    <location netOffset="-785633.90,-1435332.48" convBoundary="-0.00,-0.00,1511.29,1524.58" origBoundary="77.632924,12.970283,77.646803,12.984061" projParameter="+proj=utm +zone=43 +ellps=WGS84 +datum=WGS84 +units=m +no_defs"/>

    <poly id="1006722359" type="landuse.residential" color="235,235,227" fill="1" layer="-3.00" shape="756.072312,635.369139 764.030896,471.719985 720.952659,470.510203 712.553379,633.756221 756.072312,635.369139"/>
    <poly id="1006722362" type="landuse.residential" color="235,235,227" fill="1" layer="-3.00" shape="859.337888,350.599952 858.463065,378.466234 845.352230,378.053714 840.734600,492.673396 837.664426,562.695276 836.481718,587.790761 834.169117,637.074504 795.358404,635.809114 807.500733,348.070563 859.337888,350.599952"/>
    <poly id="1006722363" type="building.commercial" color="255,230,230" fill="1" layer="-1.00" shape="861.445235,661.855853 835.613605,661.134436 836.029241,646.160449 861.860884,646.881864 861.445235,661.855853"/>
    <poly id="1006770041" type="landuse.residential" color="235,235,227" fill="1" layer="-3.00" shape="828.385997,759.387140 805.762701,758.134367 805.010170,774.189765 709.919086,769.717986 712.340297,640.706239 833.729263,644.952094 828.385997,759.387140"/>
    <poly id="1069265496" type="landuse.residential" color="235,235,227" fill="1" layer="-3.00" shape="1149.041933,687.973288 1150.229366,668.734077 1185.450647,670.649125 1184.448652,689.801699 1149.041933,687.973288"/>
    <poly id="1069265497" type="landuse.residential" color="235,235,227" fill="1" layer="-3.00" shape="1184.448652,689.801699 1183.389001,710.326412 1147.971338,708.508954 1149.041933,687.973288 1184.448652,689.801699"/>
    <poly id="1069265498" type="landuse.construction" color="194,194,130" fill="1" layer="-3.00" shape="1139.074658,656.629129 1114.095569,655.351696 1115.086770,636.187948 1124.310155,636.659955 1125.628450,611.078734 1141.384187,611.884154 1139.074658,656.629129"/>
    <poly id="1078864762" type="landuse.residential" color="235,235,227" fill="1" layer="-3.00" shape="409.642213,622.961559 655.519863,629.844769 663.683011,482.039587 637.838329,481.517521 632.008842,481.457200 631.255383,498.663893 628.424311,504.712254 608.604891,498.971973 598.138568,493.760223 596.311015,495.158327 576.990107,536.727079 487.782422,496.592928 426.814502,464.721785 411.986055,498.133895 409.642213,622.961559"/>
    <poly id="1078864763" type="landuse.residential" color="235,235,227" fill="1" layer="-3.00" shape="667.225149,491.209335 660.585790,629.199763 708.236775,632.283454 715.974660,493.075543 667.225149,491.209335"/>
    <poly id="1078864764" type="landuse.residential" color="235,235,227" fill="1" layer="-3.00" shape="655.267202,749.712607 677.851877,750.499897 677.254463,767.309677 703.246164,768.287244 708.014414,640.130079 659.416342,638.342892 655.267202,749.712607"/>
    <poly id="1078864765" type="landuse.residential" color="235,235,227" fill="1" layer="-3.00" shape="617.981531,764.758866 647.206802,765.902690 652.265025,638.025330 623.039617,636.881528 617.981531,764.758866"/>
    <poly id="1078864766" type="landuse.residential" color="235,235,227" fill="1" layer="-3.00" shape="580.726485,763.210941 609.951752,764.354724 615.009686,636.488461 585.784397,635.333629 580.726485,763.210941"/>
    <poly id="1078864767" type="landuse.residential" color="235,235,227" fill="1" layer="-3.00" shape="543.175254,761.958902 572.400515,763.102646 577.458389,635.225340 548.232991,634.081618 543.175254,761.958902"/>
    <poly id="1078864768" type="landuse.residential" color="235,235,227" fill="1" layer="-3.00" shape="510.420803,760.889384 539.646059,762.033092 544.703665,634.166880 515.489127,633.023305 510.420803,760.889384"/>
    <poly id="1078864769" type="landuse.residential" color="235,235,227" fill="1" layer="-3.00" shape="476.365067,759.673599 505.590319,760.817271 510.647879,632.940014 481.433346,631.796476 476.365067,759.673599"/>
    <poly id="1078864770" type="landuse.residential" color="235,235,227" fill="1" layer="-3.00" shape="443.270099,758.988103 472.495345,760.131739 477.552751,632.254506 448.327367,631.110891 443.270099,758.988103"/>
    <poly id="1089710893" type="natural.scrub" color="140,196,107" fill="1" layer="-4.00" shape="709.027941,564.241780 692.648976,563.861910 692.866803,554.354676 709.245774,554.734546 709.027941,564.241780"/>
    <poly id="1089710894" type="natural.scrub" color="140,196,107" fill="1" layer="-4.00" shape="712.498492,730.300782 730.843020,730.623542 731.034296,719.488678 712.700616,719.166032 712.498492,730.300782"/>
    <poly id="1089710895" type="landuse.commercial" color="209,209,204" fill="1" layer="-3.00" shape="655.267202,749.712607 654.680658,766.522497 677.254463,767.309677 677.851877,750.499897 655.267202,749.712607"/>
    <poly id="1125662416" type="landuse.residential" color="235,235,227" fill="1" layer="-3.00" shape="837.664426,562.695276 840.734600,492.673396 871.542984,492.992438 866.349920,563.568008 837.664426,562.695276"/>
    <poly id="1125662418" type="landuse.residential" color="235,235,227" fill="1" layer="-3.00" shape="837.664426,562.695276 836.481718,587.790761 865.251509,588.907920 866.349920,563.568008 837.664426,562.695276"/>
    <poly id="1125662419" type="landuse.construction" color="194,194,130" fill="1" layer="-3.00" shape="975.349849,619.340787 976.223253,603.153781 990.329384,603.897740 989.466827,620.084860 975.349849,619.340787"/>
    <poly id="1125662420" type="landuse.residential" color="235,235,227" fill="1" layer="-3.00" shape="975.349849,619.340787 959.713887,618.503491 960.576426,602.316374 976.223253,603.153781 975.349849,619.340787"/>
    <poly id="1160846985" type="landuse.residential" color="235,235,227" fill="1" layer="-3.00" shape="687.229699,1037.021929 690.191633,965.903004 714.293952,966.894270 714.801915,954.533868 690.970857,953.556482 692.533578,915.866811 718.914793,916.959158 735.084316,917.624750 730.051634,1038.782707 687.229699,1037.021929"/>
    <poly id="1160846986" type="landuse.commercial" color="209,209,204" fill="1" layer="-3.00" shape="690.191633,965.903004 714.293952,966.894270 714.801915,954.533868 690.970857,953.556482 690.191633,965.903004"/>
    <poly id="1160846987" type="landuse.retail" color="194,194,130" fill="1" layer="-3.00" shape="692.533578,915.866811 718.914793,916.959158 719.566952,901.157348 693.185608,900.076072 692.533578,915.866811"/>
    <poly id="1160846988" type="landuse.commercial" color="209,209,204" fill="1" layer="-3.00" shape="686.028424,1066.013994 728.850314,1067.774778 730.051634,1038.782707 687.229699,1037.021929 686.028424,1066.013994"/>
    <poly id="1160846989" type="landuse.residential" color="235,235,227" fill="1" layer="-3.00" shape="424.145229,797.381707 645.911126,807.170857 646.802169,787.164769 425.036109,777.375644 424.145229,797.381707"/>
    <poly id="1160846990" type="landuse.retail" color="194,194,130" fill="1" layer="-3.00" shape="646.949905,874.633651 850.203795,882.428483 850.937319,858.778566 648.299641,850.170932 646.949905,874.633651"/>
    <poly id="1160846991" type="landuse.commercial" color="209,209,204" fill="1" layer="-3.00" shape="417.209411,865.459336 640.187988,873.412336 641.785361,848.099759 618.097749,846.891462 463.550011,838.794037 413.039641,836.146082 417.209411,865.459336"/>
    <poly id="1160846992" type="landuse.residential" color="235,235,227" fill="1" layer="-3.00" shape="813.225197,1051.256996 788.499018,1050.757336 792.481241,944.046436 819.041520,944.620429 813.364861,1047.206665 813.225197,1051.256996"/>
    <poly id="1160846993" type="landuse.residential" color="235,235,227" fill="1" layer="-3.00" shape="735.894182,1065.877186 740.658596,930.789851 768.560947,931.765156 767.273895,967.985333 783.900241,968.567127 780.855725,1054.973498 762.829425,1054.343985 762.396389,1066.804801 735.894182,1065.877186"/>
    <poly id="1160846994" type="landuse.religious" color="194,194,130" fill="1" layer="-3.00" shape="684.009863,953.739034 686.248832,900.015328 645.449680,898.950896 642.909358,952.427921 684.009863,953.739034"/>
    <poly id="1160846995" type="amenity.school" color="237,199,199" fill="1" layer="-2.00" shape="641.749715,974.257848 642.909358,952.427921 684.009863,953.739034 682.894182,975.514070 641.749715,974.257848"/>
    <poly id="1160846996" type="landuse.residential" color="235,235,227" fill="1" layer="-3.00" shape="640.779257,993.543538 641.749715,974.257848 682.894182,975.514070 682.129605,994.835107 640.779257,993.543538"/>
    <poly id="1160847023" type="landuse.residential" color="235,235,227" fill="1" layer="-3.00" shape="586.972150,1062.940531 632.262440,1064.317108 635.806790,948.457614 590.527164,947.081181 586.972150,1062.940531"/>
    <poly id="1160847024" type="landuse.residential" color="235,235,227" fill="1" layer="-3.00" shape="543.292684,1062.222783 561.199889,1062.817710 580.995481,1063.476474 581.623429,1044.762907 586.169727,909.695586 548.477688,908.430972 543.292684,1062.222783"/>
    <poly id="1162803687" type="building.retail" color="255,230,230" fill="1" layer="-1.00" shape="899.772191,696.194792 916.746094,696.780233 917.270333,681.807363 900.296536,681.210855 899.772191,696.194792"/>
    <poly id="1162803688" type="building.yes" color="255,230,230" fill="1" layer="-1.00" shape="770.596071,928.144061 770.724882,916.753926 786.117744,916.935476 785.978186,928.314431 770.596071,928.144061"/>
    <poly id="1184663999" type="landuse.residential" color="235,235,227" fill="1" layer="-3.00" shape="1111.769525,896.475270 1137.867662,897.653644 1139.254520,870.700392 1113.005986,869.365476 1111.769525,896.475270"/>
    <poly id="1184664000" type="landuse.commercial" color="209,209,204" fill="1" layer="-3.00" shape="1137.867662,897.653644 1164.669001,899.071814 1166.025040,871.952182 1139.254520,870.700392 1137.867662,897.653644"/>
    <poly id="1213789177" type="building.yes" color="255,230,230" fill="1" layer="-1.00" shape="948.006251,934.288269 958.728504,934.687210 959.499692,914.746265 948.766690,914.336143 948.006251,934.288269"/>
    <poly id="1213789178" type="building.yes" color="255,230,230" fill="1" layer="-1.00" shape="887.968092,962.659672 899.449755,963.110742 900.388672,939.551508 888.907113,939.089371 887.968092,962.659672"/>
    <poly id="1213789189" type="amenity.parking" color="184,184,179" fill="1" layer="-1.00" shape="785.595954,904.420489 768.567801,903.845612 768.505236,905.693725 776.993055,906.944018 785.645965,909.026305 785.595954,904.420489"/>
    <poly id="1213789190" type="building.yes" color="255,230,230" fill="1" layer="-1.00" shape="762.413944,855.437338 762.142759,866.947772 770.967031,867.160924 771.238334,855.639420 762.413944,855.437338"/>
    <poly id="1213789191" type="building.commercial" color="255,230,230" fill="1" layer="-1.00" shape="750.375394,877.309614 760.740571,877.594071 761.355572,855.946688 750.990387,855.662232 750.375394,877.309614"/>
    <poly id="1213789192" type="building.commercial" color="255,230,230" fill="1" layer="-1.00" shape="707.269584,875.678762 721.773457,875.740364 721.812387,865.688824 707.319365,865.627335 707.269584,875.678762"/>
    <poly id="1213789193" type="building.yes" color="255,230,230" fill="1" layer="-1.00" shape="761.586263,867.218770 761.159317,879.092915 771.056905,879.450028 771.483969,867.564812 761.586263,867.218770"/>
    <poly id="1213789194" type="building.office" color="255,230,230" fill="1" layer="-1.00" shape="794.717601,868.580347 805.801197,868.684064 805.907734,857.349048 794.813277,857.245220 794.717601,868.580347"/>
    <poly id="1213789195" type="building.office" color="255,230,230" fill="1" layer="-1.00" shape="806.432193,868.557754 817.526645,868.661588 817.622331,857.326458 806.538729,857.222738 806.432193,868.557754"/>
    <poly id="1213789196" type="building.yes" color="255,230,230" fill="1" layer="-1.00" shape="728.166057,876.980016 738.422907,877.241203 738.696572,866.538937 728.450688,866.266794 728.166057,876.980016"/>
    <poly id="1213789197" type="building.yes" color="255,230,230" fill="1" layer="-1.00" shape="728.799128,865.119078 738.296211,865.361327 738.565978,855.035415 729.068892,854.793167 728.799128,865.119078"/>
    <poly id="1213789198" type="building.yes" color="255,230,230" fill="1" layer="-1.00" shape="818.960491,868.587875 846.764875,869.595442 847.116826,859.724262 819.323402,858.705739 818.960491,868.587875"/>
    <poly id="1213789199" type="building.yes" color="255,230,230" fill="1" layer="-1.00" shape="817.457908,880.539447 828.746494,880.767072 828.957584,869.820602 817.668992,869.592978 817.457908,880.539447"/>
    <poly id="1213789202" type="building.commercial" color="255,230,230" fill="1" layer="-1.00" shape="803.880095,919.997747 809.889389,925.750186 815.514840,931.875047 820.745936,938.339008 826.010133,945.799652 830.749709,953.598047 834.921472,961.711605 840.918474,959.216455 837.396322,951.275682 833.165005,943.670748 828.288970,936.468742 822.113025,928.987584 815.235674,922.141247 807.699539,916.007669 803.880095,919.997747"/>
    <poly id="1213793048" type="building.yes" color="255,230,230" fill="1" layer="-1.00" shape="798.816220,928.834855 798.890738,921.639848 803.198879,921.828382 809.181381,929.119334 798.816220,928.834855"/>
    <poly id="1217380997" type="landuse.construction" color="194,194,130" fill="1" layer="-3.00" shape="561.199889,1062.817710 561.838908,1044.082118 581.623429,1044.762907 580.995481,1063.476474 561.199889,1062.817710"/>
    <poly id="1234957044" type="building.retail" color="255,230,230" fill="1" layer="-1.00" shape="884.777575,807.430181 897.018388,807.966594 897.723312,792.320300 885.482491,791.783889 884.777575,807.430181"/>
    <poly id="1237819641" type="building.yes" color="255,230,230" fill="1" layer="-1.00" shape="1197.588286,948.101094 1207.671682,948.338520 1207.877773,939.982459 1197.794489,939.733963 1197.588286,948.101094"/>
    <poly id="1244862258" type="building.yes" color="255,230,230" fill="1" layer="-1.00" shape="989.054707,633.664022 1008.923209,634.655899 1009.551493,622.219231 989.682982,621.227355 989.054707,633.664022"/>
    <poly id="1251689440" type="building.office" color="255,230,230" fill="1" layer="-1.00" shape="513.848411,935.383350 534.915896,935.889167 535.292556,920.471987 514.225059,919.966173 513.848411,935.383350"/>
    <poly id="1290912974" type="landuse.commercial" color="209,209,204" fill="1" layer="-3.00" shape="829.015561,811.812146 830.260125,779.698648 855.546227,780.669053 854.301634,812.782556 829.015561,811.812146"/>
    <poly id="1302059793" type="building.yes" color="255,230,230" fill="1" layer="-1.00" shape="737.386180,591.480733 721.278160,591.147929 721.021850,603.322737 737.129862,603.655543 737.386180,591.480733"/>
    <poly id="1302059794" type="building.yes" color="255,230,230" fill="1" layer="-1.00" shape="738.166316,579.045656 720.603750,578.686726 720.367120,590.009315 737.929679,590.368247 738.166316,579.045656"/>
    <poly id="1302059795" type="building.yes" color="255,230,230" fill="1" layer="-1.00" shape="738.509133,566.904954 723.182704,566.580242 722.971367,576.508221 738.297905,576.821864 738.509133,566.904954"/>
    <poly id="1302059796" type="building.yes" color="255,230,230" fill="1" layer="-1.00" shape="739.435289,555.047050 724.032864,554.721553 723.838341,564.074044 739.240761,564.399542 739.435289,555.047050"/>
    <poly id="1302059797" type="building.yes" color="255,230,230" fill="1" layer="-1.00" shape="739.855698,542.752165 724.681120,542.440097 724.450793,553.153879 739.625251,553.477017 739.855698,542.752165"/>
    <poly id="1302059812" type="building.yes" color="255,230,230" fill="1" layer="-1.00" shape="738.722460,602.930312 755.871926,603.340332 756.171560,591.177040 739.011345,590.755839 738.722460,602.930312"/>
    <poly id="1302059813" type="building.yes" color="255,230,230" fill="1" layer="-1.00" shape="741.524058,577.707684 756.460368,577.961946 756.623138,568.531631 741.686708,568.288439 741.524058,577.707684"/>
    <poly id="1302059814" type="building.yes" color="255,230,230" fill="1" layer="-1.00" shape="741.138060,565.703352 757.377052,565.971098 757.567179,554.946926 741.328295,554.668111 741.138060,565.703352"/>
    <poly id="1302059815" type="building.yes" color="255,230,230" fill="1" layer="-1.00" shape="742.498442,553.849943 758.813430,554.118476 758.982961,544.035076 742.678822,543.766657 742.498442,553.849943"/>
    <poly id="1302059824" type="building.yes" color="255,230,230" fill="1" layer="-1.00" shape="748.410934,629.787821 754.748774,630.030563 755.342063,614.670959 749.004219,614.428218 748.410934,629.787821"/>
    <poly id="1302059825" type="building.yes" color="255,230,230" fill="1" layer="-1.00" shape="738.807390,629.334145 747.076955,629.652236 747.713120,613.296739 739.443551,612.978649 738.807390,629.334145"/>
    <poly id="1302059826" type="building.yes" color="255,230,230" fill="1" layer="-1.00" shape="729.857590,628.654762 737.747323,628.957847 738.308119,614.638528 730.418268,614.346512 729.857590,628.654762"/>
    <poly id="1302195012" type="landuse.commercial" color="209,209,204" fill="1" layer="-3.00" shape="831.605241,821.735933 830.413297,851.912652 850.501600,852.629963 851.585011,822.452116 831.605241,821.735933"/>
    <poly id="1302195013" type="landuse.residential" color="235,235,227" fill="1" layer="-3.00" shape="831.605241,821.735933 651.754491,815.323813 650.671301,845.501625 830.413297,851.912652 831.605241,821.735933"/>
    <poly id="1302195014" type="building.yes" color="255,230,230" fill="1" layer="-1.00" shape="753.889338,846.204896 762.247287,846.368934 762.446460,835.521979 754.088393,835.369011 753.889338,846.204896"/>
    <poly id="1302195015" type="building.yes" color="255,230,230" fill="1" layer="-1.00" shape="795.735508,847.867048 805.536899,848.079259 805.727800,839.080977 795.926405,838.868767 795.735508,847.867048"/>
    <poly id="1302195016" type="building.yes" color="255,230,230" fill="1" layer="-1.00" shape="744.953346,833.713493 753.039910,833.874718 753.175876,827.034604 745.100281,826.862423 744.953346,833.713493"/>
    <poly id="1304763227" type="man_made.gantry" color="255,230,230" fill="0" layer="-1.00" shape="832.736377,894.912127 832.621787,897.589985 832.522982,899.791977 832.450474,901.551425 832.347542,904.151910"/>
    <poly id="1309832740" type="landuse.commercial" color="209,209,204" fill="1" layer="-3.00" shape="862.908123,638.014225 865.251509,588.907920 836.481718,587.790761 834.169117,637.074504 862.908123,638.014225"/>
    <poly id="1318456223" type="building.yes" color="255,230,230" fill="1" layer="-1.00" shape="976.621822,1004.727139 986.291986,1005.026630 986.798526,988.625480 977.117386,988.336948 976.621822,1004.727139"/>
    <poly id="1318456224" type="building.yes" color="255,230,230" fill="1" layer="-1.00" shape="968.139690,993.502367 974.901277,993.705287 975.083553,987.640572 968.332820,987.437765 968.139690,993.502367"/>
    <poly id="1318456225" type="building.yes" color="255,230,230" fill="1" layer="-1.00" shape="967.051409,1007.373424 975.755664,1007.640760 976.130040,995.611067 967.425782,995.343732 967.051409,1007.373424"/>
    <poly id="1318456226" type="building.yes" color="255,230,230" fill="1" layer="-1.00" shape="998.389454,969.106642 1011.075852,969.592386 1011.937801,947.183665 999.251277,946.708992 998.389454,969.106642"/>
    <poly id="1332561538" type="building.yes" color="255,230,230" fill="1" layer="-1.00" shape="648.312944,1009.352588 680.730035,1010.474190 681.207973,996.818240 648.790865,995.696641 648.312944,1009.352588"/>
    <poly id="1332561540" type="natural.scrub" color="140,196,107" fill="1" layer="-4.00" shape="500.624795,1063.419680 526.520224,1058.982713 526.627506,1041.271171 496.511947,1040.162485 500.624795,1063.419680"/>
    <poly id="1332561541" type="building.yes" color="255,230,230" fill="1" layer="-1.00" shape="569.692799,946.079564 582.490937,946.256293 582.673633,933.848253 569.864748,933.660343 569.692799,946.079564"/>
    <poly id="1332561542" type="building.yes" color="255,230,230" fill="1" layer="-1.00" shape="551.454467,932.362787 567.834802,932.587647 567.984668,921.253099 551.604327,921.028239 551.454467,932.362787"/>
    <poly id="1332561543" type="building.commercial" color="255,230,230" fill="1" layer="-1.00" shape="552.217586,907.927222 568.739171,908.142471 568.898314,895.911315 552.376836,895.684998 552.217586,907.927222"/>
    <poly id="1332561544" type="building.yes" color="255,230,230" fill="1" layer="-1.00" shape="569.899677,908.254114 582.784791,908.420670 582.954338,896.233902 570.069332,896.056278 569.899677,908.254114"/>
    <poly id="1337117786" type="building.yes" color="255,230,230" fill="1" layer="-1.00" shape="1004.156467,812.818513 1015.497997,813.179602 1015.949596,798.936619 1004.618916,798.575643 1004.156467,812.818513"/>
    <poly id="1337117787" type="landuse.construction" color="194,194,130" fill="1" layer="-3.00" shape="948.456708,813.281949 974.210734,814.146614 974.759636,797.845540 962.732941,797.599144 949.003875,797.146917 948.456708,813.281949"/>
    <poly id="1337117788" type="building.yes" color="255,230,230" fill="1" layer="-1.00" shape="1078.756457,748.597111 1092.735122,749.063055 1092.983396,741.869835 1078.993872,741.403779 1078.756457,748.597111"/>
    <poly id="1337117789" type="building.yes" color="255,230,230" fill="1" layer="-1.00" shape="953.762000,783.247463 963.495997,783.680436 964.035248,771.453186 954.301246,771.020214 953.762000,783.247463"/>
    <poly id="1337117790" type="building.yes" color="255,230,230" fill="1" layer="-1.00" shape="898.177372,790.409819 911.275439,790.988328 912.177414,770.993393 899.068482,770.414772 898.177372,790.409819"/>
    <poly id="1337117791" type="building.yes" color="255,230,230" fill="1" layer="-1.00" shape="897.902772,806.436965 909.763757,806.958378 910.372974,793.215207 898.511983,792.693795 897.902772,806.436965"/>
    <poly id="1337117792" type="building.yes" color="255,230,230" fill="1" layer="-1.00" shape="926.817097,808.253170 937.441010,808.717496 938.007811,795.925941 927.394864,795.450659 926.817097,808.253170"/>
    <poly id="1369673165" type="building.yes" color="255,230,230" fill="1" layer="-1.00" shape="755.123606,804.592881 766.170073,805.139009 766.649277,795.556983 755.602806,795.010855 755.123606,804.592881"/>
    <poly id="1369673166" type="building.yes" color="255,230,230" fill="1" layer="-1.00" shape="791.567873,806.852235 802.950978,807.390794 803.560336,794.677183 792.188082,794.138737 791.567873,806.852235"/>
    <poly id="1369673167" type="building.yes" color="255,230,230" fill="1" layer="-1.00" shape="670.350079,800.825854 680.810687,801.332671 681.386475,789.758975 670.925977,789.241088 670.350079,800.825854"/>
    <poly id="1369673168" type="landuse.commercial" color="209,209,204" fill="1" layer="-3.00" shape="619.107980,817.465689 618.097749,846.891462 641.785361,848.099759 643.105416,818.112598 619.107980,817.465689"/>
    <poly id="1369673169" type="landuse.residential" color="235,235,227" fill="1" layer="-3.00" shape="464.888467,810.157686 463.550011,838.794037 618.097749,846.891462 619.107980,817.465689 464.888467,810.157686"/>
    <poly id="1369673171" type="building.yes" color="255,230,230" fill="1" layer="-1.00" shape="635.163946,785.051637 644.649852,785.326944 645.015501,773.075779 635.529592,772.800473 635.163946,785.051637"/>
    <poly id="1369673172" type="building.yes" color="255,230,230" fill="1" layer="-1.00" shape="622.726481,784.635082 634.372294,784.965951 634.704657,773.832554 623.048099,773.490505 622.726481,784.635082"/>
    <poly id="1369673173" type="building.yes" color="255,230,230" fill="1" layer="-1.00" shape="611.268307,784.007260 622.371342,784.332506 622.691355,773.342898 611.588201,773.028722 611.268307,784.007260"/>
    <poly id="1369673174" type="building.yes" color="255,230,230" fill="1" layer="-1.00" shape="599.193543,783.162724 610.361826,783.477569 610.697501,772.023167 599.518358,771.708210 599.193543,783.162724"/>
    <poly id="1369673175" type="building.yes" color="255,230,230" fill="1" layer="-1.00" shape="574.450832,782.142824 586.574171,782.489684 586.897606,771.168001 574.774262,770.821142 574.450832,782.142824"/>
    <poly id="1369673176" type="building.yes" color="255,230,230" fill="1" layer="-1.00" shape="561.198060,781.828565 573.039269,782.161429 573.361897,770.917232 561.531653,770.573412 561.198060,781.828565"/>
    <poly id="1369673177" type="building.yes" color="255,230,230" fill="1" layer="-1.00" shape="548.652503,781.366644 560.081200,781.695234 560.403708,770.462107 548.975120,770.122449 548.652503,781.366644"/>
    <poly id="1369673178" type="building.yes" color="255,230,230" fill="1" layer="-1.00" shape="526.713501,780.087967 538.782445,780.445313 539.138108,768.105490 527.069044,767.759214 526.713501,780.087967"/>
    <poly id="1369673179" type="building.yes" color="255,230,230" fill="1" layer="-1.00" shape="512.484079,779.730416 523.522090,780.043878 523.840002,769.253522 512.802101,768.928991 512.484079,779.730416"/>
    <poly id="1369673180" type="building.yes" color="255,230,230" fill="1" layer="-1.00" shape="490.292082,778.770192 501.959484,779.112297 502.313184,766.960654 490.645662,766.629618 490.292082,778.770192"/>
    <poly id="1369673181" type="building.yes" color="255,230,230" fill="1" layer="-1.00" shape="476.286529,777.761822 489.364919,778.140658 489.680299,767.593828 476.591048,767.214880 476.286529,777.761822"/>
    <poly id="1369673182" type="building.yes" color="255,230,230" fill="1" layer="-1.00" shape="466.604086,777.595245 474.689965,777.822800 475.022721,766.645137 466.926098,766.406401 466.604086,777.595245"/>
    <poly id="1369673189" type="building.yes" color="255,230,230" fill="1" layer="-1.00" shape="476.057853,778.877567 465.964161,778.584961 465.590919,791.577750 475.673751,791.870244 476.057853,778.877567"/>
    <poly id="1369673190" type="building.yes" color="255,230,230" fill="1" layer="-1.00" shape="476.392162,791.689479 487.690584,792.016692 488.062921,779.112455 476.775349,778.785355 476.392162,791.689479"/>
    <poly id="1369673191" type="building.yes" color="255,230,230" fill="1" layer="-1.00" shape="524.229050,780.970036 513.896533,780.674942 513.608237,790.701746 523.929894,790.996728 524.229050,780.970036"/>
    <poly id="1369673192" type="building.yes" color="255,230,230" fill="1" layer="-1.00" shape="538.530682,781.693664 526.765464,781.361601 526.378131,794.664220 538.132373,795.007241 538.530682,781.693664"/>
    <poly id="1369673193" type="building.yes" color="255,230,230" fill="1" layer="-1.00" shape="550.423418,782.292741 539.070710,781.964941 538.667362,795.765564 550.020064,796.093365 550.423418,782.292741"/>
    <poly id="1369673194" type="building.yes" color="255,230,230" fill="1" layer="-1.00" shape="563.305153,782.791352 551.670315,782.449557 551.313271,794.922212 562.937248,795.263896 563.305153,782.791352"/>
    <poly id="1369673195" type="building.yes" color="255,230,230" fill="1" layer="-1.00" shape="573.532331,796.414147 573.933864,782.790629 564.111555,782.500795 563.709912,796.135382 573.532331,796.414147"/>
    <poly id="1369673196" type="building.yes" color="255,230,230" fill="1" layer="-1.00" shape="586.517347,783.784334 574.969237,783.454497 574.594683,796.569056 586.131818,796.909850 586.517347,783.784334"/>
    <poly id="1369673197" type="building.yes" color="255,230,230" fill="1" layer="-1.00" shape="598.859395,797.617223 599.249283,784.071074 587.212788,783.725108 586.812050,797.271143 598.859395,797.617223"/>
    <poly id="1369673198" type="building.yes" color="255,230,230" fill="1" layer="-1.00" shape="610.131885,784.715076 600.255182,784.435737 599.883480,797.273567 609.749323,797.552795 610.131885,784.715076"/>
    <poly id="1369673199" type="building.yes" color="255,230,230" fill="1" layer="-1.00" shape="622.175571,785.415380 611.061566,785.101091 610.674994,798.326233 621.788993,798.640523 622.175571,785.415380"/>
    <poly id="1369673200" type="building.yes" color="255,230,230" fill="1" layer="-1.00" shape="622.206975,799.165158 633.809359,799.495578 634.213214,785.650670 622.610823,785.320251 622.206975,799.165158"/>
    <poly id="1425620934" type="landuse.commercial" color="209,209,204" fill="1" layer="-3.00" shape="920.769350,710.848156 889.702536,709.297513 888.540971,732.345196 888.736256,732.358289 919.607759,733.895842 920.769350,710.848156"/>
    <poly id="1425620935" type="landuse.commercial" color="209,209,204" fill="1" layer="-3.00" shape="548.477688,908.430972 586.169727,909.695586 586.639045,895.818148 548.936131,894.553424 548.477688,908.430972"/>
    <poly id="1425620936" type="landuse.commercial" color="209,209,204" fill="1" layer="-3.00" shape="812.936340,906.198154 796.951116,905.556568 796.602822,919.269221 803.587649,920.979986 818.988994,940.258136 826.420353,949.169312 839.477496,973.604161 844.760848,946.724527 845.204565,920.658255 826.948598,920.181325 812.936340,906.198154"/>