<?xml version="1.0" encoding="UTF-8"?>

<!-- generated on 2025-11-03 12:35:41 by Eclipse SUMO netconvert Version 1.19.0
<configuration xmlns:xsi="http://www.w3.org/2001/XMLSchema-instance" xsi:noNamespaceSchemaLocation="http://sumo.dlr.de/xsd/netconvertConfiguration.xsd">

    <input>
        <type-files value="${SUMO_HOME}/data/typemap/osmNetconvert.typ.xml"/>
        <osm-files value="osm_bbox.osm.xml.gz"/>
    </input>

    <output>
        <output-file value="osm.net.xml.gz"/>
        <output.street-names value="true"/>
        <output.original-names value="true"/>
    </output>

    <projection>
        <proj.utm value="true"/>
    </projection>

    <processing>
        <geometry.remove value="true"/>
        <roundabouts.guess value="true"/>
        <lefthand value="true"/>
    </processing>

    <tls_building>
        <tls.discard-simple value="true"/>
        <tls.join value="true"/>
        <tls.guess-signals value="true"/>
        <tls.default-type value="actuated"/>
    </tls_building>

    <ramp_guessing>
        <ramps.guess value="true"/>
    </ramp_guessing>

    <junctions>
        <junctions.join value="true"/>
        <junctions.corner-detail value="5"/>
    </junctions>

</configuration>
-->

<net version="1.16" junctionCornerDetail="5" lefthand="true" limitTurnSpeed="5.50" xmlns:xsi="http://www.w3.org/2001/XMLSchema-instance" xsi:noNamespaceSchemaLocation="http://sumo.dlr.de/xsd/net_file.xsd">

    <location netOffset="-785633.90,-1435332.48" convBoundary="0.00,-0.00,1502.15,1524.58" origBoundary="77.632924,12.970283,77.646738,12.984061" projParameter="+proj=utm +zone=43 +ellps=WGS84 +datum=WGS84 +units=m +no_defs"/>

    <type id="highway.footway" priority="1" numLanes="1" speed="2.78" allow="pedestrian" oneway="1" width="2.00"/>
    <type id="highway.path" priority="1" numLanes="1" speed="5.56" allow="pedestrian bicycle" oneway="0" width="2.00"/>
    <type id="highway.primary" priority="12" numLanes="2" speed="27.78" disallow="tram rail_urban rail rail_electric rail_fast ship" oneway="0"/>
    <type id="highway.residential" priority="3" numLanes="1" speed="13.89" disallow="tram rail_urban rail rail_electric rail_fast ship" oneway="0"/>
    <type id="highway.secondary" priority="11" numLanes="1" speed="27.78" disallow="tram rail_urban rail rail_electric rail_fast ship" oneway="0"/>
    <type id="highway.service" priority="1" numLanes="1" speed="5.56" allow="pedestrian delivery bicycle" oneway="0"/>
    <type id="highway.steps" priority="1" numLanes="1" speed="1.39" allow="pedestrian" oneway="1" width="2.00"/>
    <type id="highway.tertiary" priority="10" numLanes="1" speed="22.22" disallow="tram rail_urban rail rail_electric rail_fast ship" oneway="0"/>

    <edge id=":11353511890_0" function="internal">
        <lane id=":11353511890_0_0" index="0" disallow="tram rail_urban rail rail_electric rail_fast ship" speed="3.65" length="4.67" shape="506.05,1311.73 505.35,1312.99 505.36,1313.89 506.08,1314.41 507.52,1314.57"/>
    </edge>
    <edge id=":11497593343_0" function="internal">
        <lane id=":11497593343_0_0" index="0" disallow="tram rail_urban rail rail_electric rail_fast ship" speed="3.65" length="4.67" shape="1466.00,1001.11 1467.22,1000.35 1467.65,999.56 1467.28,998.75 1466.11,997.91"/>
    </edge>
    <edge id=":1232740564_0" function="internal">
        <lane id=":1232740564_0_0" index="0" disallow="tram rail_urban rail rail_electric rail_fast ship" speed="3.65" length="4.67" shape="626.04,514.33 625.28,513.11 624.50,512.68 623.68,513.05 622.84,514.22"/>
    </edge>
    <edge id=":12994746442_0" function="internal">
        <lane id=":12994746442_0_0" index="0" allow="pedestrian delivery bicycle" speed="3.65" length="4.67" shape="479.70,1056.01 478.70,1054.97 477.84,1054.73 477.12,1055.27 476.56,1056.59"/>
    </edge>
    <edge id=":13111664268_0" function="internal">
        <lane id=":13111664268_0_0" index="0" allow="pedestrian delivery bicycle" speed="5.56" length="3.40" shape="730.27,900.62 730.13,904.02"/>
    </edge>
    <edge id=":13111664268_1" function="internal">
        <lane id=":13111664268_1_0" index="0" allow="pedestrian delivery bicycle" speed="3.65" length="1.44" shape="730.27,900.62 731.02,901.85"/>
    </edge>
    <edge id=":13111664268_4" function="internal">
        <lane id=":13111664268_4_0" index="0" allow="pedestrian delivery bicycle" speed="3.65" length="3.23" shape="731.02,901.85 731.80,902.28 732.62,901.92 733.47,900.75"/>
    </edge>
    <edge id=":13111664268_2" function="internal">
        <lane id=":13111664268_2_0" index="0" allow="pedestrian delivery bicycle" speed="5.56" length="3.41" shape="733.32,904.15 733.47,900.75"/>
    </edge>
    <edge id=":13111664268_3" function="internal">
        <lane id=":13111664268_3_0" index="0" allow="pedestrian delivery bicycle" speed="3.65" length="1.44" shape="733.32,904.15 732.58,902.92"/>
    </edge>
    <edge id=":13111664268_5" function="internal">
        <lane id=":13111664268_5_0" index="0" allow="pedestrian delivery bicycle" speed="3.65" length="3.23" shape="732.58,902.92 731.79,902.49 730.98,902.85 730.13,904.02"/>
    </edge>
    <edge id=":13111664269_0" function="internal">
        <lane id=":13111664269_0_0" index="0" allow="pedestrian delivery bicycle" speed="3.65" length="4.67" shape="730.08,905.20 730.82,906.43 731.61,906.87 732.42,906.50 733.27,905.34"/>
    </edge>
    <edge id=":13111664277_0" function="internal">
        <lane id=":13111664277_0_0" index="0" disallow="tram rail_urban rail rail_electric rail_fast ship" speed="27.78" length="5.02" shape="498.70,887.46 503.72,887.73"/>
        <lane id=":13111664277_0_1" index="1" disallow="tram rail_urban rail rail_electric rail_fast ship" speed="27.78" length="5.02" shape="498.88,884.26 503.89,884.54"/>
    </edge>
    <edge id=":13111664280_0" function="internal">
        <lane id=":13111664280_0_0" index="0" disallow="tram rail_urban rail rail_electric rail_fast ship" speed="27.78" length="5.10" shape="504.47,874.63 499.37,874.43"/>
        <lane id=":13111664280_0_1" index="1" disallow="tram rail_urban rail rail_electric rail_fast ship" speed="27.78" length="5.10" shape="504.34,877.83 499.24,877.63"/>
    </edge>
    <edge id=":13111664298_0" function="internal">
        <lane id=":13111664298_0_0" index="0" disallow="tram rail_urban rail rail_electric rail_fast ship" speed="27.78" length="5.05" shape="587.90,879.39 582.85,879.18"/>
    </edge>
    <edge id=":1462139766_0" function="internal">
        <lane id=":1462139766_0_0" index="0" disallow="tram rail_urban rail rail_electric rail_fast ship" speed="3.65" length="4.67" shape="1187.05,1186.01 1187.70,1187.29 1188.45,1187.79 1189.29,1187.49 1190.23,1186.39"/>
    </edge>
    <edge id=":1563309904_0" function="internal">
        <lane id=":1563309904_0_0" index="0" disallow="tram rail_urban rail rail_electric rail_fast ship" speed="3.65" length="4.67" shape="1219.40,1251.15 1220.08,1252.42 1220.84,1252.89 1221.68,1252.56 1222.58,1251.44"/>
    </edge>
    <edge id=":1756917762_0" function="internal">
        <lane id=":1756917762_0_0" index="0" disallow="tram rail_urban rail rail_electric rail_fast ship" speed="3.65" length="4.67" shape="1157.89,1083.36 1158.56,1084.64 1159.31,1085.12 1160.15,1084.81 1161.07,1083.70"/>
    </edge>
    <edge id=":2268586316_0" function="internal">
        <lane id=":2268586316_0_0" index="0" allow="pedestrian delivery bicycle" speed="3.65" length="4.67" shape="1002.72,1060.22 1003.44,1061.47 1004.22,1061.92 1005.04,1061.57 1005.92,1060.42"/>
    </edge>
    <edge id=":287912299_0" function="internal">
        <lane id=":287912299_0_0" index="0" disallow="tram rail_urban rail rail_electric rail_fast ship" speed="3.65" length="4.67" shape="360.77,624.22 359.64,625.12 359.32,625.95 359.79,626.71 361.05,627.40"/>
    </edge>
    <edge id=":3369894928_0" function="internal">
        <lane id=":3369894928_0_0" index="0" disallow="tram rail_urban rail rail_electric rail_fast ship" speed="13.89" length="5.00" shape="1224.51,716.45 1219.52,716.24"/>
    </edge>
    <edge id=":3369894928_1" function="internal">
        <lane id=":3369894928_1_0" index="0" disallow="tram rail_urban rail rail_electric rail_fast ship" speed="13.89" length="5.00" shape="1219.38,719.44 1224.38,719.65"/>
    </edge>
    <edge id=":3369909140_0" function="internal">
        <lane id=":3369909140_0_0" index="0" disallow="tram rail_urban rail rail_electric rail_fast ship" speed="6.63" length="9.23" shape="481.48,555.38 481.05,557.81 479.91,559.55 478.06,560.59 475.51,560.93"/>
    </edge>
    <edge id=":3369909140_1" function="internal">
        <lane id=":3369909140_1_0" index="0" disallow="tram rail_urban rail rail_electric rail_fast ship" speed="13.89" length="14.45" shape="481.48,555.38 480.89,569.82"/>
    </edge>
    <edge id=":3369909140_2" function="internal">
        <lane id=":3369909140_2_0" index="0" disallow="tram rail_urban rail rail_electric rail_fast ship" speed="8.07" length="3.85" shape="481.48,555.38 481.92,559.21"/>
    </edge>
    <edge id=":3369909140_3" function="internal">
        <lane id=":3369909140_3_0" index="0" disallow="tram rail_urban rail rail_electric rail_fast ship" speed="3.65" length="1.44" shape="481.48,555.38 482.24,556.60"/>
    </edge>
    <edge id=":3369909140_16" function="internal">
        <lane id=":3369909140_16_0" index="0" disallow="tram rail_urban rail rail_electric rail_fast ship" speed="8.07" length="10.32" shape="481.92,559.21 483.48,562.01 486.17,563.78 489.99,564.54"/>
    </edge>
    <edge id=":3369909140_17" function="internal">
        <lane id=":3369909140_17_0" index="0" disallow="tram rail_urban rail rail_electric rail_fast ship" speed="3.65" length="3.23" shape="482.24,556.60 483.03,557.03 483.84,556.65 484.68,555.47"/>
    </edge>
    <edge id=":3369909140_4" function="internal">
        <lane id=":3369909140_4_0" index="0" disallow="tram rail_urban rail rail_electric rail_fast ship" speed="6.59" length="9.11" shape="490.16,561.34 487.70,560.86 485.97,559.72 484.96,557.92 484.68,555.47"/>
    </edge>
    <edge id=":3369909140_5" function="internal">
        <lane id=":3369909140_5_0" index="0" disallow="tram rail_urban rail rail_electric rail_fast ship" speed="13.89" length="14.65" shape="490.16,561.34 475.51,560.93"/>
    </edge>
    <edge id=":3369909140_6" function="internal">
        <lane id=":3369909140_6_0" index="0" disallow="tram rail_urban rail rail_electric rail_fast ship" speed="8.03" length="14.33" shape="490.16,561.34 486.28,561.69 483.45,563.22 481.65,565.93 480.89,569.82"/>
    </edge>
    <edge id=":3369909140_7" function="internal">
        <lane id=":3369909140_7_0" index="0" disallow="tram rail_urban rail rail_electric rail_fast ship" speed="3.65" length="4.67" shape="490.16,561.34 488.92,562.07 488.48,562.85 488.83,563.67 489.99,564.54"/>
    </edge>
    <edge id=":3369909140_8" function="internal">
        <lane id=":3369909140_8_0" index="0" disallow="tram rail_urban rail rail_electric rail_fast ship" speed="6.55" length="9.16" shape="484.08,569.99 484.57,567.49 485.71,565.74 487.52,564.76 489.99,564.54"/>
    </edge>
    <edge id=":3369909140_9" function="internal">
        <lane id=":3369909140_9_0" index="0" disallow="tram rail_urban rail rail_electric rail_fast ship" speed="13.89" length="14.53" shape="484.08,569.99 484.68,555.47"/>
    </edge>
    <edge id=":3369909140_10" function="internal">
        <lane id=":3369909140_10_0" index="0" disallow="tram rail_urban rail rail_electric rail_fast ship" speed="7.91" length="4.20" shape="484.08,569.99 483.73,566.03 483.62,565.83"/>
    </edge>
    <edge id=":3369909140_11" function="internal">
        <lane id=":3369909140_11_0" index="0" disallow="tram rail_urban rail rail_electric rail_fast ship" speed="3.65" length="1.44" shape="484.08,569.99 483.35,568.75"/>
    </edge>
    <edge id=":3369909140_18" function="internal">
        <lane id=":3369909140_18_0" index="0" disallow="tram rail_urban rail rail_electric rail_fast ship" speed="7.91" length="10.19" shape="483.62,565.83 482.18,563.20 479.44,561.50 475.51,560.93"/>
    </edge>
    <edge id=":3369909140_19" function="internal">
        <lane id=":3369909140_19_0" index="0" disallow="tram rail_urban rail rail_electric rail_fast ship" speed="3.65" length="3.23" shape="483.35,568.75 482.57,568.30 481.75,568.66 480.89,569.82"/>
    </edge>
    <edge id=":3369909140_12" function="internal">
        <lane id=":3369909140_12_0" index="0" disallow="tram rail_urban rail rail_electric rail_fast ship" speed="6.40" length="9.04" shape="475.51,564.13 477.97,564.49 479.69,565.56 480.67,567.33 480.89,569.82"/>
    </edge>
    <edge id=":3369909140_13" function="internal">
        <lane id=":3369909140_13_0" index="0" disallow="tram rail_urban rail rail_electric rail_fast ship" speed="13.89" length="14.48" shape="475.51,564.13 489.99,564.54"/>
    </edge>
    <edge id=":3369909140_14" function="internal">
        <lane id=":3369909140_14_0" index="0" disallow="tram rail_urban rail rail_electric rail_fast ship" speed="8.11" length="14.30" shape="475.51,564.13 479.43,563.59 482.26,561.97 484.01,559.27 484.68,555.47"/>
    </edge>
    <edge id=":3369909140_15" function="internal">
        <lane id=":3369909140_15_0" index="0" disallow="tram rail_urban rail rail_electric rail_fast ship" speed="3.65" length="4.67" shape="475.51,564.13 476.71,563.33 477.11,562.53 476.71,561.73 475.51,560.93"/>
    </edge>
    <edge id=":3369909142_0" function="internal">
        <lane id=":3369909142_0_0" index="0" disallow="tram rail_urban rail rail_electric rail_fast ship" speed="6.43" length="9.03" shape="514.63,557.02 514.23,559.48 513.14,561.19 511.36,562.15 508.88,562.37"/>
    </edge>
    <edge id=":3369909142_1" function="internal">
        <lane id=":3369909142_1_0" index="0" disallow="tram rail_urban rail rail_electric rail_fast ship" speed="13.89" length="14.40" shape="514.63,557.02 514.38,571.42"/>
    </edge>
    <edge id=":3369909142_2" function="internal">
        <lane id=":3369909142_2_0" index="0" disallow="tram rail_urban rail rail_electric rail_fast ship" speed="3.65" length="1.44" shape="514.63,557.02 515.41,558.23"/>
    </edge>
    <edge id=":3369909142_9" function="internal">
        <lane id=":3369909142_9_0" index="0" disallow="tram rail_urban rail rail_electric rail_fast ship" speed="3.65" length="3.23" shape="515.41,558.23 516.20,558.65 517.01,558.26 517.83,557.07"/>
    </edge>
    <edge id=":3369909142_3" function="internal">
        <lane id=":3369909142_3_0" index="0" disallow="tram rail_urban rail rail_electric rail_fast ship" speed="13.89" length="14.40" shape="517.58,571.48 517.83,557.07"/>
    </edge>
    <edge id=":3369909142_4" function="internal">
        <lane id=":3369909142_4_0" index="0" disallow="tram rail_urban rail rail_electric rail_fast ship" speed="8.13" length="4.00" shape="517.58,571.48 517.09,567.68 517.01,567.53"/>
    </edge>
    <edge id=":3369909142_5" function="internal">
        <lane id=":3369909142_5_0" index="0" disallow="tram rail_urban rail rail_electric rail_fast ship" speed="3.65" length="1.44" shape="517.58,571.48 516.80,570.26"/>
    </edge>
    <edge id=":3369909142_10" function="internal">
        <lane id=":3369909142_10_0" index="0" disallow="tram rail_urban rail rail_electric rail_fast ship" speed="8.13" length="10.24" shape="517.01,567.53 515.48,564.89 512.74,563.12 508.88,562.37"/>
    </edge>
    <edge id=":3369909142_11" function="internal">
        <lane id=":3369909142_11_0" index="0" disallow="tram rail_urban rail rail_electric rail_fast ship" speed="3.65" length="3.23" shape="516.80,570.26 516.01,569.85 515.20,570.24 514.38,571.42"/>
    </edge>
    <edge id=":3369909142_6" function="internal">
        <lane id=":3369909142_6_0" index="0" disallow="tram rail_urban rail rail_electric rail_fast ship" speed="6.66" length="9.23" shape="508.70,565.57 511.22,566.05 513.01,567.19 514.06,568.98 514.38,571.42"/>
    </edge>
    <edge id=":3369909142_7" function="internal">
        <lane id=":3369909142_7_0" index="0" disallow="tram rail_urban rail rail_electric rail_fast ship" speed="7.93" length="14.34" shape="508.70,565.57 512.64,565.22 515.47,563.69 517.20,560.97 517.83,557.07"/>
    </edge>
    <edge id=":3369909142_8" function="internal">
        <lane id=":3369909142_8_0" index="0" disallow="tram rail_urban rail rail_electric rail_fast ship" speed="3.65" length="4.67" shape="508.70,565.57 509.95,564.83 510.39,564.06 510.03,563.23 508.88,562.37"/>
    </edge>
    <edge id=":3369987587_0" function="internal">
        <lane id=":3369987587_0_0" index="0" disallow="tram rail_urban rail rail_electric rail_fast ship" speed="13.89" length="14.40" shape="481.81,939.36 467.42,938.91"/>
    </edge>
    <edge id=":3369987587_1" function="internal">
        <lane id=":3369987587_1_0" index="0" disallow="tram rail_urban rail rail_electric rail_fast ship" speed="7.97" length="4.08" shape="481.81,939.36 477.92,939.79 477.78,939.87"/>
    </edge>
    <edge id=":3369987587_2" function="internal">
        <lane id=":3369987587_2_0" index="0" disallow="tram rail_urban rail rail_electric rail_fast ship" speed="3.65" length="1.44" shape="481.81,939.36 480.59,940.12"/>
    </edge>
    <edge id=":3369987587_9" function="internal">
        <lane id=":3369987587_9_0" index="0" disallow="tram rail_urban rail rail_electric rail_fast ship" speed="7.97" length="10.17" shape="477.78,939.87 475.12,941.37 473.42,944.09 472.80,947.95"/>
    </edge>
    <edge id=":3369987587_10" function="internal">
        <lane id=":3369987587_10_0" index="0" disallow="tram rail_urban rail rail_electric rail_fast ship" speed="3.65" length="3.23" shape="480.59,940.12 480.16,940.91 480.54,941.72 481.71,942.56"/>
    </edge>
    <edge id=":3369987587_3" function="internal">
        <lane id=":3369987587_3_0" index="0" disallow="tram rail_urban rail rail_electric rail_fast ship" speed="6.47" length="9.03" shape="476.00,948.01 476.39,945.56 477.47,943.83 479.25,942.83 481.71,942.56"/>
    </edge>
    <edge id=":3369987587_4" function="internal">
        <lane id=":3369987587_4_0" index="0" disallow="tram rail_urban rail rail_electric rail_fast ship" speed="8.05" length="14.21" shape="476.00,948.01 475.51,944.13 473.92,941.32 471.22,939.58 467.42,938.91"/>
    </edge>
    <edge id=":3369987587_5" function="internal">
        <lane id=":3369987587_5_0" index="0" disallow="tram rail_urban rail rail_electric rail_fast ship" speed="3.65" length="4.67" shape="476.00,948.01 475.22,946.79 474.42,946.38 473.62,946.77 472.80,947.95"/>
    </edge>
    <edge id=":3369987587_6" function="internal">
        <lane id=":3369987587_6_0" index="0" disallow="tram rail_urban rail rail_electric rail_fast ship" speed="6.57" length="9.11" shape="467.32,942.11 469.75,942.54 471.47,943.66 472.49,945.46 472.80,947.95"/>
    </edge>
    <edge id=":3369987587_7" function="internal">
        <lane id=":3369987587_7_0" index="0" disallow="tram rail_urban rail rail_electric rail_fast ship" speed="13.89" length="14.40" shape="467.32,942.11 481.71,942.56"/>
    </edge>
    <edge id=":3369987587_8" function="internal">
        <lane id=":3369987587_8_0" index="0" disallow="tram rail_urban rail rail_electric rail_fast ship" speed="3.65" length="1.44" shape="467.32,942.11 468.54,941.34"/>
    </edge>
    <edge id=":3369987587_11" function="internal">
        <lane id=":3369987587_11_0" index="0" disallow="tram rail_urban rail rail_electric rail_fast ship" speed="3.65" length="3.23" shape="468.54,941.34 468.97,940.56 468.59,939.75 467.42,938.91"/>
    </edge>
    <edge id=":3370388002_0" function="internal">
        <lane id=":3370388002_0_0" index="0" disallow="tram rail_urban rail rail_electric rail_fast ship" speed="13.89" length="10.97" shape="1275.75,608.56 1264.79,608.08"/>
    </edge>
    <edge id=":3370388002_1" function="internal">
        <lane id=":3370388002_1_0" index="0" allow="pedestrian delivery bicycle" speed="9.72" length="2.55" shape="1275.75,608.56 1273.70,608.90 1273.28,609.13"/>
    </edge>
    <edge id=":3370388002_7" function="internal">
        <lane id=":3370388002_7_0" index="0" allow="pedestrian delivery bicycle" speed="9.72" length="9.23" shape="1273.28,609.13 1271.45,610.11 1269.01,612.18 1266.37,615.12"/>
    </edge>
    <edge id=":3370388002_2" function="internal">
        <lane id=":3370388002_2_0" index="0" allow="pedestrian delivery bicycle" speed="8.77" length="8.84" shape="1268.85,617.14 1270.94,614.75 1272.77,613.05 1274.33,612.05 1275.61,611.75"/>
    </edge>
    <edge id=":3370388002_3" function="internal">
        <lane id=":3370388002_3_0" index="0" allow="pedestrian delivery bicycle" speed="6.72" length="14.46" shape="1268.85,617.14 1271.21,613.36 1271.32,610.59 1269.18,608.83 1264.79,608.08"/>
    </edge>
    <edge id=":3370388002_4" function="internal">
        <lane id=":3370388002_4_0" index="0" allow="pedestrian delivery bicycle" speed="3.65" length="4.67" shape="1268.85,617.14 1268.99,615.70 1268.62,614.89 1267.75,614.69 1266.37,615.12"/>
    </edge>
    <edge id=":3370388002_5" function="internal">
        <lane id=":3370388002_5_0" index="0" allow="pedestrian delivery bicycle" speed="4.66" length="6.13" shape="1264.65,611.28 1266.51,611.59 1267.42,612.34 1267.37,613.51 1266.37,615.12"/>
    </edge>
    <edge id=":3370388002_6" function="internal">
        <lane id=":3370388002_6_0" index="0" disallow="tram rail_urban rail rail_electric rail_fast ship" speed="13.89" length="10.97" shape="1264.65,611.28 1275.61,611.75"/>
    </edge>
    <edge id=":3370388006_0" function="internal">
        <lane id=":3370388006_0_0" index="0" allow="pedestrian delivery bicycle" speed="3.65" length="4.67" shape="1263.82,632.88 1264.53,634.14 1265.30,634.59 1266.13,634.25 1267.01,633.11"/>
    </edge>
    <edge id=":3370502553_0" function="internal">
        <lane id=":3370502553_0_0" index="0" disallow="tram rail_urban rail rail_electric rail_fast ship" speed="3.65" length="4.67" shape="412.61,559.15 411.37,559.90 410.94,560.68 411.30,561.50 412.46,562.35"/>
    </edge>
    <edge id=":3387828981_0" function="internal">
        <lane id=":3387828981_0_0" index="0" allow="pedestrian delivery bicycle" speed="9.72" length="0.25" shape="1005.86,1011.17 1005.85,1011.42"/>
    </edge>
    <edge id=":3387828981_1" function="internal">
        <lane id=":3387828981_1_0" index="0" disallow="tram rail_urban rail rail_electric rail_fast ship" speed="3.65" length="2.34" shape="1005.86,1011.17 1006.61,1012.40 1007.39,1012.84"/>
    </edge>
    <edge id=":3387828981_3" function="internal">
        <lane id=":3387828981_3_0" index="0" disallow="tram rail_urban rail rail_electric rail_fast ship" speed="3.65" length="2.34" shape="1007.39,1012.84 1008.20,1012.47 1009.06,1011.31"/>
    </edge>
    <edge id=":3387828981_2" function="internal">
        <lane id=":3387828981_2_0" index="0" allow="pedestrian delivery bicycle" speed="9.72" length="0.31" shape="1009.04,1011.62 1009.06,1011.31"/>
    </edge>
    <edge id=":3506426909_0" function="internal">
        <lane id=":3506426909_0_0" index="0" disallow="tram rail_urban rail rail_electric rail_fast ship" speed="6.57" length="9.14" shape="1082.43,820.83 1081.93,823.29 1080.77,825.01 1078.95,825.99 1076.47,826.23"/>
    </edge>
    <edge id=":3506426909_1" function="internal">
        <lane id=":3506426909_1_0" index="0" disallow="tram rail_urban rail rail_electric rail_fast ship" speed="13.89" length="14.48" shape="1082.43,820.83 1081.65,835.28"/>
    </edge>
    <edge id=":3506426909_2" function="internal">
        <lane id=":3506426909_2_0" index="0" disallow="tram rail_urban rail rail_electric rail_fast ship" speed="7.97" length="14.26" shape="1082.43,820.83 1082.75,824.73 1084.25,827.57 1086.92,829.36 1090.77,830.08"/>
    </edge>
    <edge id=":3506426909_3" function="internal">
        <lane id=":3506426909_3_0" index="0" disallow="tram rail_urban rail rail_electric rail_fast ship" speed="3.65" length="4.67" shape="1082.43,820.83 1083.15,822.07 1083.93,822.52 1084.75,822.17 1085.62,821.02"/>
    </edge>
    <edge id=":3506426909_4" function="internal">
        <lane id=":3506426909_4_0" index="0" disallow="tram rail_urban rail rail_electric rail_fast ship" speed="6.47" length="9.03" shape="1090.91,826.88 1088.47,826.42 1086.77,825.29 1085.83,823.49 1085.62,821.02"/>
    </edge>
    <edge id=":3506426909_5" function="internal">
        <lane id=":3506426909_5_0" index="0" disallow="tram rail_urban rail rail_electric rail_fast ship" speed="13.89" length="14.45" shape="1090.91,826.88 1076.47,826.23"/>
    </edge>
    <edge id=":3506426909_6" function="internal">
        <lane id=":3506426909_6_0" index="0" disallow="tram rail_urban rail rail_electric rail_fast ship" speed="8.02" length="4.08" shape="1090.91,826.88 1087.01,827.26 1086.86,827.34"/>
    </edge>
    <edge id=":3506426909_7" function="internal">
        <lane id=":3506426909_7_0" index="0" disallow="tram rail_urban rail rail_electric rail_fast ship" speed="3.65" length="1.44" shape="1090.91,826.88 1089.67,827.63"/>
    </edge>
    <edge id=":3506426909_16" function="internal">
        <lane id=":3506426909_16_0" index="0" disallow="tram rail_urban rail rail_electric rail_fast ship" speed="8.02" length="10.16" shape="1086.86,827.34 1084.17,828.79 1082.39,831.46 1081.65,835.28"/>
    </edge>
    <edge id=":3506426909_17" function="internal">
        <lane id=":3506426909_17_0" index="0" disallow="tram rail_urban rail rail_electric rail_fast ship" speed="3.65" length="3.23" shape="1089.67,827.63 1089.24,828.41 1089.60,829.23 1090.77,830.08"/>
    </edge>
    <edge id=":3506426909_8" function="internal">
        <lane id=":3506426909_8_0" index="0" disallow="tram rail_urban rail rail_electric rail_fast ship" speed="6.53" length="9.09" shape="1084.85,835.43 1085.32,833.00 1086.46,831.29 1088.28,830.32 1090.77,830.08"/>
    </edge>
    <edge id=":3506426909_9" function="internal">
        <lane id=":3506426909_9_0" index="0" disallow="tram rail_urban rail rail_electric rail_fast ship" speed="13.89" length="14.43" shape="1084.85,835.43 1085.62,821.02"/>
    </edge>
    <edge id=":3506426909_10" function="internal">
        <lane id=":3506426909_10_0" index="0" disallow="tram rail_urban rail rail_electric rail_fast ship" speed="8.00" length="14.19" shape="1084.85,835.43 1084.48,831.56 1082.96,828.74 1080.29,826.96 1076.47,826.23"/>
    </edge>
    <edge id=":3506426909_11" function="internal">
        <lane id=":3506426909_11_0" index="0" disallow="tram rail_urban rail rail_electric rail_fast ship" speed="3.65" length="4.67" shape="1084.85,835.43 1084.11,834.20 1083.33,833.76 1082.51,834.12 1081.65,835.28"/>
    </edge>
    <edge id=":3506426909_12" function="internal">
        <lane id=":3506426909_12_0" index="0" disallow="tram rail_urban rail rail_electric rail_fast ship" speed="6.51" length="9.03" shape="1076.32,829.43 1078.75,829.89 1080.45,831.02 1081.42,832.82 1081.65,835.28"/>
    </edge>
    <edge id=":3506426909_13" function="internal">
        <lane id=":3506426909_13_0" index="0" disallow="tram rail_urban rail rail_electric rail_fast ship" speed="13.89" length="14.46" shape="1076.32,829.43 1090.77,830.08"/>
    </edge>
    <edge id=":3506426909_14" function="internal">
        <lane id=":3506426909_14_0" index="0" disallow="tram rail_urban rail rail_electric rail_fast ship" speed="8.06" length="4.07" shape="1076.32,829.43 1080.19,829.06 1080.36,828.97"/>
    </edge>
    <edge id=":3506426909_15" function="internal">
        <lane id=":3506426909_15_0" index="0" disallow="tram rail_urban rail rail_electric rail_fast ship" speed="3.65" length="1.44" shape="1076.32,829.43 1077.56,828.68"/>
    </edge>
    <edge id=":3506426909_18" function="internal">
        <lane id=":3506426909_18_0" index="0" disallow="tram rail_urban rail rail_electric rail_fast ship" speed="8.06" length="10.18" shape="1080.36,828.97 1083.03,827.53 1084.84,824.85 1085.62,821.02"/>
    </edge>
    <edge id=":3506426909_19" function="internal">
        <lane id=":3506426909_19_0" index="0" disallow="tram rail_urban rail rail_electric rail_fast ship" speed="3.65" length="3.23" shape="1077.56,828.68 1078.00,827.90 1077.63,827.09 1076.47,826.23"/>
    </edge>
    <edge id=":3563294493_0" function="internal">
        <lane id=":3563294493_0_0" index="0" disallow="tram rail_urban rail rail_electric rail_fast ship" speed="3.65" length="4.67" shape="891.43,1074.60 892.11,1075.87 892.87,1076.34 893.71,1076.01 894.61,1074.89"/>
    </edge>
    <edge id=":3648204417_0" function="internal">
        <lane id=":3648204417_0_0" index="0" disallow="tram rail_urban rail rail_electric rail_fast ship" speed="13.89" length="5.11" shape="895.11,1035.00 894.58,1040.09"/>
    </edge>
    <edge id=":3648204417_1" function="internal">
        <lane id=":3648204417_1_0" index="0" disallow="tram rail_urban rail rail_electric rail_fast ship" speed="13.89" length="5.04" shape="897.77,1040.38 898.29,1035.36"/>
    </edge>
    <edge id=":3687364167_0" function="internal">
        <lane id=":3687364167_0_0" index="0" disallow="tram rail_urban rail rail_electric rail_fast ship" speed="3.65" length="4.67" shape="392.19,798.46 390.96,799.21 390.53,799.99 390.89,800.81 392.06,801.66"/>
    </edge>
    <edge id=":3726120744_0" function="internal">
        <lane id=":3726120744_0_0" index="0" disallow="tram rail_urban rail rail_electric rail_fast ship" speed="22.22" length="5.00" shape="952.62,976.16 947.62,975.94"/>
    </edge>
    <edge id=":3726120744_1" function="internal">
        <lane id=":3726120744_1_0" index="0" disallow="tram rail_urban rail rail_electric rail_fast ship" speed="22.22" length="5.00" shape="947.48,979.14 952.48,979.35"/>
    </edge>
    <edge id=":4101487991_0" function="internal">
        <lane id=":4101487991_0_0" index="0" disallow="tram rail_urban rail rail_electric rail_fast ship" speed="13.89" length="5.00" shape="897.93,1010.00 897.37,1014.97"/>
    </edge>