<?xml version="1.0" encoding="UTF-8"?>

<!-- generated on 2025-10-29 12:44:36.808323 by osmWebWizard.py v1_24_0+0000-b72eb3fabc8
<configuration>
    <net-file value="C:\Users\prate\AppData\Local\Temp\tmpsa77th7o\osm.net.xml.gz"/>
    <output-trip-file value="C:\Users\prate\AppData\Local\Temp\tmpsa77th7o\osm.passenger.trips.xml"/>
    <route-file value="C:\Users\prate\AppData\Local\Temp\tmpsa77th7o\osm.passenger.rou.xml"/>
    <prefix value="veh"/>
    <trip-attributes value="departLane=&quot;best&quot;"/>
    <fringe-start-attributes value="departSpeed=&quot;max&quot;"/>
    <vehicle-class value="passenger"/>
    <lanes value="True"/>
    <fringe-factor value="3"/>
    <allow-fringe.min-length value="1000.0"/>
    <edge-permission value="passenger"/>
    <via-edge-types value="highway.motorway,highway.motorway_link,highway.trunk_link,highway.primary_link,highway.secondary_link,highway.tertiary_link"/>
    <seed value="44"/>
    <min-distance value="300.0"/>
    <min-distance.fringe value="10.0"/>
    <remove-loops value="True"/>
    <insertion-density value="35.0"/>
</configuration>
-->

<routes xmlns:xsi="http://www.w3.org/2001/XMLSchema-instance" xsi:noNamespaceSchemaLocation="http://sumo.dlr.de/xsd/routes_file.xsd">
    <vType id="veh_passenger" vClass="passenger"/>
    <trip id="veh0" depart="0.00" from="105317908#1" to="164029919" departLane="best" type="veh_passenger"/>
    <trip id="veh1" depart="2.70" from="59358744#0" to="-36054478#5" departLane="best" type="veh_passenger"/>
    <trip id="veh2" depart="5.40" from="-408152821" to="-1079087279#4" departLane="best" type="veh_passenger"/>
    <trip id="veh3" depart="8.10" from="-330036960" to="-105317908#0" departLane="best" type="veh_passenger"/>
    <trip id="veh4" depart="10.80" from="-36054475#4" to="1340268913#1" departLane="best" type="veh_passenger"/>
    <trip id="veh5" depart="13.49" from="800625776" to="36054710#4" departLane="best" type="veh_passenger" departSpeed="max"/>
    <trip id="veh6" depart="16.19" from="-693606163#3" to="-995124341#1" departLane="best" type="veh_passenger"/>
    <trip id="veh7" depart="18.89" from="36054710#6" to="-59358814#4" departLane="best" type="veh_passenger"/>
    <trip id="veh8" depart="21.59" from="-217529762" to="59358735#1" departLane="best" type="veh_passenger"/>
    <trip id="veh9" depart="24.29" from="330080541#0" to="-330032677#0" departLane="best" type="veh_passenger"/>
    <trip id="veh10" depart="26.99" from="59358897" to="-330031963" departLane="best" type="veh_passenger" departSpeed="max"/>
    <trip id="veh11" depart="29.69" from="330080541#3" to="66079116" departLane="best" type="veh_passenger"/>
    <trip id="veh12" depart="32.39" from="-1112847470" to="-693606163#4" departLane="best" type="veh_passenger" departSpeed="max"/>
    <trip id="veh13" depart="35.09" from="126774193#5" to="59358819#1" departLane="best" type="veh_passenger"/>
    <trip id="veh14" depart="37.79" from="-36054712#0" to="-568518767#1" departLane="best" type="veh_passenger"/>
    <trip id="veh15" depart="40.48" from="36054475#7" to="543470383#2" departLane="best" type="veh_passenger"/>
    <trip id="veh16" depart="43.18" from="326870588" to="146189219#3" departLane="best" type="veh_passenger"/>
    <trip id="veh17" depart="45.88" from="-552801723" to="1167293941#1" departLane="best" type="veh_passenger"/>
    <trip id="veh18" depart="48.58" from="492431226#4" to="36054478#3" departLane="best" type="veh_passenger"/>
    <trip id="veh19" depart="51.28" from="-59358848#8" to="543470383#3" departLane="best" type="veh_passenger"/>
    <trip id="veh20" depart="53.98" from="568518767#0" to="-126774207#0" departLane="best" type="veh_passenger" departSpeed="max"/>
    <trip id="veh21" depart="56.68" from="-36054475#4" to="-36054773#0" departLane="best" type="veh_passenger"/>
    <trip id="veh22" depart="59.38" from="-105317923" to="464465177#0" departLane="best" type="veh_passenger"/>
    <trip id="veh23" depart="62.08" from="331808656" to="164031389#1" departLane="best" type="veh_passenger"/>
    <trip id="veh24" depart="64.78" from="995124341#0" to="-59358856#1" departLane="best" type="veh_passenger" departSpeed="max"/>
    <trip id="veh25" depart="67.47" from="-36054715" to="-330032677#0" departLane="best" type="veh_passenger"/>
    <trip id="veh26" depart="70.17" from="330032677#0" to="-132909371#1" departLane="best" type="veh_passenger" departSpeed="max"/>
    <trip id="veh27" depart="72.87" from="1103080136#0" to="-126774207#3" departLane="best" type="veh_passenger" departSpeed="max"/>
    <trip id="veh28" depart="75.57" from="-36054710#6" to="331683242#0" departLane="best" type="veh_passenger"/>
    <trip id="veh29" depart="78.27" from="-59358759#3" to="331683242#2" departLane="best" type="veh_passenger"/>
    <trip id="veh30" depart="80.97" from="-59358750#0" to="36054710#0" departLane="best" type="veh_passenger"/>
    <trip id="veh31" depart="83.67" from="-59358744#2" to="-142862540#0" departLane="best" type="veh_passenger" departSpeed="max"/>
    <trip id="veh32" depart="86.37" from="330030517#2" to="217573744" departLane="best" type="veh_passenger"/>
    <trip id="veh33" depart="89.07" from="126774193#8" to="-59358750#0" departLane="best" type="veh_passenger"/>
    <trip id="veh34" depart="91.77" from="-59358779#0" to="-995124341#0" departLane="best" type="veh_passenger"/>
    <trip id="veh35" depart="94.46" from="23415702#0" to="59358856#1" departLane="best" type="veh_passenger"/>
    <trip id="veh36" depart="97.16" from="-217529762" to="-552810586#2" departLane="best" type="veh_passenger"/>
    <trip id="veh37" depart="99.86" from="59358873#0" to="349807544#2" departLane="best" type="veh_passenger" departSpeed="max"/>
    <trip id="veh38" depart="102.56" from="-217573744" to="1103080136#1" departLane="best" type="veh_passenger"/>
    <trip id="veh39" depart="105.26" from="349807544#0" to="59358819#0" departLane="best" type="veh_passenger"/>
    <trip id="veh40" depart="107.96" from="-31756240#3" to="59358814#1" departLane="best" type="veh_passenger"/>
    <trip id="veh41" depart="110.66" from="464465186#6" to="-59358743" departLane="best" type="veh_passenger"/>
    <trip id="veh42" depart="113.36" from="-557201422" to="36054711#3" departLane="best" type="veh_passenger" departSpeed="max"/>
    <trip id="veh43" depart="116.06" from="23415702#4" to="-164031389#3" departLane="best" type="veh_passenger"/>
    <trip id="veh44" depart="118.76" from="-343842757#1" to="59358856#2" departLane="best" type="veh_passenger"/>
    <trip id="veh45" depart="121.45" from="-59358724#1" to="-435423679" departLane="best" type="veh_passenger"/>
    <trip id="veh46" depart="124.15" from="330030517#1" to="1378838837#1" departLane="best" type="veh_passenger"/>
    <trip id="veh47" depart="126.85" from="-217573747" to="59358819#0" departLane="best" type="veh_passenger"/>
    <trip id="veh48" depart="129.55" from="59358856#1" to="36054478#3" departLane="best" type="veh_passenger"/>
    <trip id="veh49" depart="132.25" from="543271084#2" to="-693606163#11" departLane="best" type="veh_passenger"/>
    <trip id="veh50" depart="134.95" from="693606163#0" to="435423678#0" departLane="best" type="veh_passenger" departSpeed="max"/>
    <trip id="veh51" depart="137.65" from="36054710#2" to="1112847470" departLane="best" type="veh_passenger"/>
    <trip id="veh52" depart="140.35" from="-36054721#2" to="36054710#3" departLane="best" type="veh_passenger"/>
    <trip id="veh53" depart="143.05" from="435423678#1" to="-105201129#4" departLane="best" type="veh_passenger"/>
    <trip id="veh54" depart="145.74" from="-59358803" to="142862540#1" departLane="best" type="veh_passenger"/>
    <trip id="veh55" depart="148.44" from="-36054718#0" to="-331683242#0" departLane="best" type="veh_passenger"/>
    <trip id="veh56" depart="151.14" from="-36054711#3" to="-105317908#2" departLane="best" type="veh_passenger"/>
    <trip id="veh57" depart="153.84" from="-331683240#0" to="-693606163#7" departLane="best" type="veh_passenger"/>
    <trip id="veh58" depart="156.54" from="-59358801" to="-331683241#2" departLane="best" type="veh_passenger" departSpeed="max"/>
    <trip id="veh59" depart="159.24" from="-59358814#6" to="31756240#7" departLane="best" type="veh_passenger"/>
    <trip id="veh60" depart="161.94" from="-59358814#3" to="343842757#1" departLane="best" type="veh_passenger"/>
    <trip id="veh61" depart="164.64" from="543470383#2" to="-105317911#0" departLane="best" type="veh_passenger"/>
    <trip id="veh62" depart="167.34" from="492431226#4" to="-330036960" departLane="best" type="veh_passenger"/>
    <trip id="veh63" depart="170.04" from="-107218837#0" to="-217573744" departLane="best" type="veh_passenger"/>
    <trip id="veh64" depart="172.73" from="23415702#4" to="59358746#3" departLane="best" type="veh_passenger"/>
    <trip id="veh65" depart="175.43" from="59358848#3" to="-36054475#1" departLane="best" type="veh_passenger"/>
    <trip id="veh66" depart="178.13" from="1079087279#5" to="59358856#1" departLane="best" type="veh_passenger"/>
    <trip id="veh67" depart="180.83" from="59358779#0" to="552810586#0" departLane="best" type="veh_passenger"/>
    <trip id="veh68" depart="183.53" from="-349813159#1" to="-59358695#2" departLane="best" type="veh_passenger"/>
    <trip id="veh69" depart="186.23" from="105317908#0" to="543271084#0" departLane="best" type="veh_passenger" departSpeed="max"/>
    <trip id="veh70" depart="188.93" from="349813159#1" to="-36054478#2" departLane="best" type="veh_passenger"/>
    <trip id="veh71" depart="191.63" from="-36054710#6" to="1112847470" departLane="best" type="veh_passenger"/>
    <trip id="veh72" depart="194.33" from="59358780#0" to="1227978413" departLane="best" type="veh_passenger" departSpeed="max"/>
    <trip id="veh73" depart="197.03" from="492431226#2" to="36054710#0" departLane="best" type="veh_passenger"/>
    <trip id="veh74" depart="199.72" from="59358755#2" to="126774193#8" departLane="best" type="veh_passenger"/>
    <trip id="veh75" depart="202.42" from="-693606163#3" to="1167293941#2" departLane="best" type="veh_passenger"/>
    <trip id="veh76" depart="205.12" from="543271084#2" to="-59358743" departLane="best" type="veh_passenger"/>
    <trip id="veh77" depart="207.82" from="-36054713" to="59358724#1" departLane="best" type="veh_passenger"/>
    <trip id="veh78" depart="210.52" from="126774193#6" to="331683242#0" departLane="best" type="veh_passenger"/>
    <trip id="veh79" depart="213.22" from="-36054710#2" to="-126774203" departLane="best" type="veh_passenger"/>
    <trip id="veh80" depart="215.92" from="-408152821" to="107218837#1" departLane="best" type="veh_passenger"/>
    <trip id="veh81" depart="218.62" from="-1112847470" to="-59358724#2" departLane="best" type="veh_passenger" departSpeed="max"/>
    <trip id="veh82" depart="221.32" from="-105201129#3" to="543271084#2" departLane="best" type="veh_passenger"/>
    <trip id="veh83" depart="224.02" from="-59358779#1" to="-36054478#2" departLane="best" type="veh_passenger"/>
    <trip id="veh84" depart="226.71" from="-59358819#0" to="36054714#1" departLane="best" type="veh_passenger"/>
    <trip id="veh85" depart="229.41" from="59358755#1" to="-59358848#1" departLane="best" type="veh_passenger"/>
    <trip id="veh86" depart="232.11" from="126774207#3" to="-105201129#4" departLane="best" type="veh_passenger"/>
    <trip id="veh87" depart="234.81" from="330030512#1" to="-59358755#0" departLane="best" type="veh_passenger"/>
    <trip id="veh88" depart="237.51" from="349807544#0" to="464465186#1" departLane="best" type="veh_passenger"/>
    <trip id="veh89" depart="240.21" from="-59358848#5" to="36054475#1" departLane="best" type="veh_passenger"/>
    <trip id="veh90" depart="242.91" from="532195159" to="126774193#0" departLane="best" type="veh_passenger"/>
    <trip id="veh91" depart="245.61" from="59358873#0" to="-164031389#3" departLane="best" type="veh_passenger" departSpeed="max"/>
    <trip id="veh92" depart="248.31" from="-693606163#6" to="-36054475#4" departLane="best" type="veh_passenger"/>
    <trip id="veh93" depart="251.00" from="142862540#0" to="-59358856#2" departLane="best" type="veh_passenger"/>
    <trip id="veh94" depart="253.70" from="693606163#0" to="-1317793643" departLane="best" type="veh_passenger" departSpeed="max"/>
    <trip id="veh95" depart="256.40" from="-1079087279#0" to="464465186#6" departLane="best" type="veh_passenger"/>
    <trip id="veh96" depart="259.10" from="23415702#3" to="59358695#1" departLane="best" type="veh_passenger"/>
    <trip id="veh97" depart="261.80" from="-59358848#1" to="-435423678#1" departLane="best" type="veh_passenger"/>
    <trip id="veh98" depart="264.50" from="59358759#2" to="1378838837#4" departLane="best" type="veh_passenger"/>
    <trip id="veh99" depart="267.20" from="-105317923" to="36054720#0" departLane="best" type="veh_passenger"/>
    <trip id="veh100" depart="269.90" from="331683242#0" to="-330032677#1" departLane="best" type="veh_passenger"/>
    <trip id="veh101" depart="272.60" from="532195159" to="492431224#1" departLane="best" type="veh_passenger"/>
    <trip id="veh102" depart="275.30" from="331683240#0" to="27227507#3" departLane="best" type="veh_passenger"/>
    <trip id="veh103" depart="277.99" from="1103080136#0" to="36054710#4" departLane="best" type="veh_passenger" departSpeed="max"/>
    <trip id="veh104" depart="280.69" from="-800625777" to="59358848#2" departLane="best" type="veh_passenger" departSpeed="max"/>
    <trip id="veh105" depart="283.39" from="326870588" to="36054475#4" departLane="best" type="veh_passenger"/>
    <trip id="veh106" depart="286.09" from="142862540#1" to="-330032677#0" departLane="best" type="veh_passenger"/>
    <trip id="veh107" depart="288.79" from="1378838837#1" to="59358832" departLane="best" type="veh_passenger"/>
    <trip id="veh108" depart="291.49" from="-36054717#3" to="-552810586#4" departLane="best" type="veh_passenger" departSpeed="max"/>
    <trip id="veh109" depart="294.19" from="-59358750#1" to="-435423679" departLane="best" type="veh_passenger"/>
    <trip id="veh110" depart="296.89" from="543470383#0" to="142862540#1" departLane="best" type="veh_passenger"/>
    <trip id="veh111" depart="299.59" from="-31756240#4" to="1340268913#0" departLane="best" type="veh_passenger"/>
    <trip id="veh112" depart="302.29" from="36054711#2" to="-1079087279#2" departLane="best" type="veh_passenger"/>
    <trip id="veh113" depart="304.98" from="-36054714#1" to="-105317908#1" departLane="best" type="veh_passenger"/>
    <trip id="veh114" depart="307.68" from="36054711#2" to="-995124341#0" departLane="best" type="veh_passenger"/>
    <trip id="veh115" depart="310.38" from="-105317911#1" to="-552801062#1" departLane="best" type="veh_passenger"/>
    <trip id="veh116" depart="313.08" from="-36054712#2" to="23415702#4" departLane="best" type="veh_passenger"/>
    <trip id="veh117" depart="315.78" from="1079087279#4" to="105317923" departLane="best" type="veh_passenger"/>
    <trip id="veh118" depart="318.48" from="-59358835#1" to="-1103080136#2" departLane="best" type="veh_passenger"/>
    <trip id="veh119" depart="321.18" from="-59358819#1" to="331683240#0" departLane="best" type="veh_passenger"/>
    <trip id="veh120" depart="323.88" from="146189219#3" to="31756240#3" departLane="best" type="veh_passenger"/>
    <trip id="veh121" depart="326.58" from="-36054475#5" to="-126774203" departLane="best" type="veh_passenger"/>
    <trip id="veh122" depart="329.28" from="464465186#4" to="36054716#0" departLane="best" type="veh_passenger"/>
    <trip id="veh123" depart="331.97" from="349813159#0" to="616268847" departLane="best" type="veh_passenger"/>
    <trip id="veh124" depart="334.67" from="-59358782#2" to="36054721#0" departLane="best" type="veh_passenger"/>
    <trip id="veh125" depart="337.37" from="-59358759#0" to="330030512#1" departLane="best" type="veh_passenger"/>
    <trip id="veh126" depart="340.07" from="59358814#3" to="1167293941#1" departLane="best" type="veh_passenger"/>
    <trip id="veh127" depart="342.77" from="126774203" to="-450546981" departLane="best" type="veh_passenger"/>
    <trip id="veh128" depart="345.47" from="59358878" to="36054475#5" departLane="best" type="veh_passenger"/>
    <trip id="veh129" depart="348.17" from="-59358819#1" to="-59358735#1" departLane="best" type="veh_passenger"/>
    <trip id="veh130" depart="350.87" from="-1079087279#3" to="-31756240#4" departLane="best" type="veh_passenger"/>
    <trip id="veh131" depart="353.57" from="693606163#7" to="23415702#1" departLane="best" type="veh_passenger"/>
    <trip id="veh132" depart="356.27" from="492431224#2" to="-532195159" departLane="best" type="veh_passenger"/>
    <trip id="veh133" depart="358.96" from="568518767#0" to="36054712#2" departLane="best" type="veh_passenger" departSpeed="max"/>
    <trip id="veh134" depart="361.66" from="-349807544#2" to="59358814#6" departLane="best" type="veh_passenger"/>
    <trip id="veh135" depart="364.36" from="-59358779#1" to="59358848#0" departLane="best" type="veh_passenger"/>
    <trip id="veh136" depart="367.06" from="23415702#0" to="-995124341#0" departLane="best" type="veh_passenger"/>
    <trip id="veh137" depart="369.76" from="-217573747" to="-126774207#1" departLane="best" type="veh_passenger"/>
    <trip id="veh138" depart="372.46" from="-31756240#3" to="59358814#1" departLane="best" type="veh_passenger"/>
    <trip id="veh139" depart="375.16" from="-59358856#0" to="-1079087279#0" departLane="best" type="veh_passenger"/>
    <trip id="veh140" depart="377.86" from="105201129#4" to="331683240#0" departLane="best" type="veh_passenger"/>
    <trip id="veh141" depart="380.56" from="-59358856#1" to="59358878" departLane="best" type="veh_passenger"/>
    <trip id="veh142" depart="383.25" from="-105317911#0" to="-36054475#1" departLane="best" type="veh_passenger"/>
    <trip id="veh143" depart="385.95" from="126774203" to="331683242#3" departLane="best" type="veh_passenger"/>
    <trip id="veh144" depart="388.65" from="1054124408" to="492431226#0" departLane="best" type="veh_passenger"/>
    <trip id="veh145" depart="391.35" from="217573747" to="-105201129#0" departLane="best" type="veh_passenger"/>
    <trip id="veh146" depart="394.05" from="-59358743" to="-36054710#7" departLane="best" type="veh_passenger"/>
    <trip id="veh147" depart="396.75" from="331683242#3" to="1167293941#2" departLane="best" type="veh_passenger"/>
    <trip id="veh148" depart="399.45" from="776970595#3" to="59358876#0" departLane="best" type="veh_passenger"/>
    <trip id="veh149" depart="402.15" from="-36054710#4" to="1079087279#0" departLane="best" type="veh_passenger"/>
    <trip id="veh150" depart="404.85" from="-31756240#4" to="-59358759#0" departLane="best" type="veh_passenger"/>
    <trip id="veh151" depart="407.55" from="105317908#2" to="464465186#0" departLane="best" type="veh_passenger"/>
    <trip id="veh152" depart="410.24" from="-330036960" to="331683240#0" departLane="best" type="veh_passenger"/>
    <trip id="veh153" depart="412.94" from="36054714#0" to="-59358873#2" departLane="best" type="veh_passenger"/>
    <trip id="veh154" depart="415.64" from="552810586#2" to="-107218837#0" departLane="best" type="veh_passenger"/>
    <trip id="veh155" depart="418.34" from="-59358814#0" to="1340268916" departLane="best" type="veh_passenger"/>
    <trip id="veh156" depart="421.04" from="31756240#1" to="-450546981" departLane="best" type="veh_passenger"/>
    <trip id="veh157" depart="423.74" from="59358735#2" to="-59358750#0" departLane="best" type="veh_passenger"/>
    <trip id="veh158" depart="426.44" from="36054710#6" to="59358884#1" departLane="best" type="veh_passenger"/>
    <trip id="veh159" depart="429.14" from="-330030512#1" to="59358759#1" departLane="best" type="veh_passenger"/>
    <trip id="veh160" depart="431.84" from="693606163#2" to="-349807544#3" departLane="best" type="veh_passenger"/>
    <trip id="veh161" depart="434.54" from="-217573747" to="36054710#6" departLane="best" type="veh_passenger"/>
    <trip id="veh162" depart="437.23" from="-126774207#1" to="-331683241#1" departLane="best" type="veh_passenger"/>
    <trip id="veh163" depart="439.93" from="-59358735#1" to="-105317908#0" departLane="best" type="veh_passenger"/>
    <trip id="veh164" depart="442.63" from="-59358848#7" to="-132909371#0" departLane="best" type="veh_passenger"/>
    <trip id="veh165" depart="445.33" from="59358848#7" to="1333419876" departLane="best" type="veh_passenger"/>
    <trip id="veh166" depart="448.03" from="-1103080136#3" to="461556548#4" departLane="best" type="veh_passenger"/>
    <trip id="veh167" depart="450.73" from="-552810586#3" to="59358761#0" departLane="best" type="veh_passenger"/>
    <trip id="veh168" depart="453.43" from="-693606163#0" to="552801723" departLane="best" type="veh_passenger"/>
    <trip id="veh169" depart="456.13" from="-36054717#2" to="-59358884#0" departLane="best" type="veh_passenger"/>
    <trip id="veh170" depart="458.83" from="59358724#2" to="543470383#0" departLane="best" type="veh_passenger"/>
    <trip id="veh171" depart="461.53" from="59358856#3" to="-31756240#1" departLane="best" type="veh_passenger"/>
    <trip id="veh172" depart="464.22" from="59358695#1" to="36054710#0" departLane="best" type="veh_passenger"/>
    <trip id="veh173" depart="466.92" from="105317923" to="36054478#3" departLane="best" type="veh_passenger"/>
    <trip id="veh174" depart="469.62" from="1167293941#1" to="59358695#2" departLane="best" type="veh_passenger"/>
    <trip id="veh175" depart="472.32" from="-59358759#0" to="464465177#0" departLane="best" type="veh_passenger"/>
    <trip id="veh176" depart="475.02" from="-36054475#1" to="31756240#4" departLane="best" type="veh_passenger"/>
    <trip id="veh177" depart="477.72" from="-59358814#0" to="-59358848#0" departLane="best" type="veh_passenger"/>
    <trip id="veh178" depart="480.42" from="-59358744#2" to="-1079087279#5" departLane="best" type="veh_passenger" departSpeed="max"/>
    <trip id="veh179" depart="483.12" from="-326870588" to="36054475#3" departLane="best" type="veh_passenger" departSpeed="max"/>
    <trip id="veh180" depart="485.82" from="36054475#2" to="349807544#2" departLane="best" type="veh_passenger"/>
    <trip id="veh181" depart="488.51" from="1103080136#0" to="31756240#4" departLane="best" type="veh_passenger" departSpeed="max"/>
    <trip id="veh182" depart="491.21" from="492431226#4" to="693606163#8" departLane="best" type="veh_passenger"/>
    <trip id="veh183" depart="493.91" from="-800625777" to="461556548#4" departLane="best" type="veh_passenger" departSpeed="max"/>
    <trip id="veh184" depart="496.61" from="543470383#0" to="59358743" departLane="best" type="veh_passenger"/>
    <trip id="veh185" depart="499.31" from="36054475#4" to="-435423678#1" departLane="best" type="veh_passenger"/>
    <trip id="veh186" depart="502.01" from="543470383#0" to="23415702#2" departLane="best" type="veh_passenger"/>
    <trip id="veh187" depart="504.71" from="450546981" to="461556548#2" departLane="best" type="veh_passenger" departSpeed="max"/>
    <trip id="veh188" depart="507.41" from="-36054717#3" to="-164031389#3" departLane="best" type="veh_passenger" departSpeed="max"/>
    <trip id="veh189" depart="510.11" from="492431225#1" to="36054475#1" departLane="best" type="veh_passenger"/>
    <trip id="veh190" depart="512.81" from="-107218837#0" to="-126774207#2" departLane="best" type="veh_passenger"/>
    <trip id="veh191" depart="515.50" from="1079087279#1" to="343842757#1" departLane="best" type="veh_passenger"/>
    <trip id="veh192" depart="518.20" from="-331683240#2" to="36054710#6" departLane="best" type="veh_passenger"/>
    <trip id="veh193" depart="520.90" from="-59358848#7" to="331683242#4" departLane="best" type="veh_passenger"/>
    <trip id="veh194" depart="523.60" from="-59358746#3" to="-435423679" departLane="best" type="veh_passenger" departSpeed="max"/>
    <trip id="veh195" depart="526.30" from="-349813159#0" to="36054478#5" departLane="best" type="veh_passenger"/>
    <trip id="veh196" depart="529.00" from="-330032677#1" to="59358695#3" departLane="best" type="veh_passenger"/>
    <trip id="veh197" depart="531.70" from="-59358744#0" to="59358848#2" departLane="best" type="veh_passenger"/>
    <trip id="veh198" depart="534.40" from="-343842757#0" to="-330030517#3" departLane="best" type="veh_passenger"/>
    <trip id="veh199" depart="537.10" from="552801062#1" to="105317908#2" departLane="best" type="veh_passenger"/>
    <trip id="veh200" depart="539.80" from="-59358758#1" to="-552801723" departLane="best" type="veh_passenger" departSpeed="max"/>
    <trip id="veh201" depart="542.49" from="-1227978413" to="36054717#0" departLane="best" type="veh_passenger" departSpeed="max"/>
    <trip id="veh202" depart="545.19" from="36054711#3" to="461556548#4" departLane="best" type="veh_passenger"/>
    <trip id="veh203" depart="547.89" from="492431226#3" to="-450546981" departLane="best" type="veh_passenger"/>
    <trip id="veh204" depart="550.59" from="-36054478#4" to="330080541#0" departLane="best" type="veh_passenger"/>
    <trip id="veh205" depart="553.29" from="543271084#3" to="364686191#1" departLane="best" type="veh_passenger"/>
    <trip id="veh206" depart="555.99" from="435423679" to="105317908#1" departLane="best" type="veh_passenger" departSpeed="max"/>
    <trip id="veh207" depart="558.69" from="36054717#2" to="59358814#6" departLane="best" type="veh_passenger"/>
    <trip id="veh208" depart="561.39" from="552801062#0" to="-1103080136#0" departLane="best" type="veh_passenger" departSpeed="max"/>
    <trip id="veh209" depart="564.09" from="-105317908#2" to="-59358758#0" departLane="best" type="veh_passenger"/>
    <trip id="veh210" depart="566.79" from="-693606163#10" to="66079116" departLane="best" type="veh_passenger"/>
    <trip id="veh211" depart="569.48" from="435423678#1" to="1079087279#2" departLane="best" type="veh_passenger"/>
    <trip id="veh212" depart="572.18" from="27227507#4" to="105317908#1" departLane="best" type="veh_passenger"/>
    <trip id="veh213" depart="574.88" from="543470383#1" to="105201129#1" departLane="best" type="veh_passenger"/>
    <trip id="veh214" depart="577.58" from="59358897" to="-132909371#0" departLane="best" type="veh_passenger" departSpeed="max"/>
    <trip id="veh215" depart="580.28" from="-552810586#3" to="36054478#3" departLane="best" type="veh_passenger"/>
    <trip id="veh216" depart="582.98" from="-36054475#5" to="59358758#1" departLane="best" type="veh_passenger"/>
    <trip id="veh217" depart="585.68" from="126774207#0" to="-330032677#1" departLane="best" type="veh_passenger"/>
    <trip id="veh218" depart="588.38" from="-36054717#3" to="-331683241#0" departLane="best" type="veh_passenger" departSpeed="max"/>
    <trip id="veh219" depart="591.08" from="-349807544#1" to="1340268914" departLane="best" type="veh_passenger"/>
    <trip id="veh220" depart="593.78" from="693606163#2" to="776970595#0" departLane="best" type="veh_passenger"/>
    <trip id="veh221" depart="596.47" from="330080541#3" to="59358746#3" departLane="best" type="veh_passenger"/>
    <trip id="veh222" depart="599.17" from="568518767#0" to="23415702#3" departLane="best" type="veh_passenger" departSpeed="max"/>
    <trip id="veh223" depart="601.87" from="464465186#0" to="543271084#4" departLane="best" type="veh_passenger"/>
    <trip id="veh224" depart="604.57" from="59358814#4" to="132909371#1" departLane="best" type="veh_passenger"/>
    <trip id="veh225" depart="607.27" from="-31756240#0" to="-1340268915" departLane="best" type="veh_passenger"/>
    <trip id="veh226" depart="609.97" from="36054714#1" to="330030517#2" departLane="best" type="veh_passenger"/>
    <trip id="veh227" depart="612.67" from="59358695#3" to="-36054478#4" departLane="best" type="veh_passenger"/>
    <trip id="veh228" depart="615.37" from="543470383#2" to="776970595#3" departLane="best" type="veh_passenger"/>
    <trip id="veh229" depart="618.07" from="126774193#6" to="-31756240#7" departLane="best" type="veh_passenger"/>
    <trip id="veh230" depart="620.76" from="36054710#3" to="-217573747" departLane="best" type="veh_passenger"/>
    <trip id="veh231" depart="623.46" from="492431226#4" to="543470383#0" departLane="best" type="veh_passenger"/>
    <trip id="veh232" depart="626.16" from="-693606163#4" to="59358814#2" departLane="best" type="veh_passenger"/>
    <trip id="veh233" depart="628.86" from="-693606163#2" to="552801062#1" departLane="best" type="veh_passenger"/>
    <trip id="veh234" depart="631.56" from="-59358761#1" to="36054717#3" departLane="best" type="veh_passenger" departSpeed="max"/>
    <trip id="veh235" depart="634.26" from="-330031075" to="-59358848#1" departLane="best" type="veh_passenger"/>
    <trip id="veh236" depart="636.96" from="105201129#0" to="59358779#1" departLane="best" type="veh_passenger"/>
    <trip id="veh237" depart="639.66" from="1192378662#0" to="59358743" departLane="best" type="veh_passenger" departSpeed="max"/>
    <trip id="veh238" depart="642.36" from="693606163#8" to="1167298926#0" departLane="best" type="veh_passenger"/>
    <trip id="veh239" depart="645.06" from="-36054475#7" to="492431226#0" departLane="best" type="veh_passenger"/>
    <trip id="veh240" depart="647.75" from="-36054712#2" to="31756240#8" departLane="best" type="veh_passenger"/>
    <trip id="veh241" depart="650.45" from="-59358814#0" to="-146189219#0" departLane="best" type="veh_passenger"/>
    <trip id="veh242" depart="653.15" from="-1079087279#3" to="105201129#5" departLane="best" type="veh_passenger"/>
    <trip id="veh243" depart="655.85" from="-126774207#2" to="331683241#1" departLane="best" type="veh_passenger"/>
    <trip id="veh244" depart="658.55" from="126774207#5" to="330080541#3" departLane="best" type="veh_passenger"/>