<?xml version="1.0" encoding="UTF-8"?>

<!-- generated on 2025-10-29 12:44:34.341331 by osmWebWizard.py v1_24_0+0000-b72eb3fabc8
<configuration>
    <net-file value="C:\Users\prate\AppData\Local\Temp\tmpsa77th7o\osm.net.xml.gz"/>
    <output-trip-file value="C:\Users\prate\AppData\Local\Temp\tmpsa77th7o\osm.motorcycle.trips.xml"/>
    <route-file value="C:\Users\prate\AppData\Local\Temp\tmpsa77th7o\osm.motorcycle.rou.xml"/>
    <prefix value="motorcycle"/>
    <trip-attributes value="departLane=&quot;best&quot;"/>
    <fringe-start-attributes value="departSpeed=&quot;max&quot;"/>
    <vehicle-class value="motorcycle"/>
    <fringe-factor value="3"/>
    <edge-permission value="motorcycle"/>
    <via-edge-types value="highway.motorway,highway.motorway_link,highway.trunk_link,highway.primary_link,highway.secondary_link,highway.tertiary_link"/>
    <seed value="43"/>
    <max-distance value="1200.0"/>
    <remove-loops value="True"/>
    <insertion-density value="75.0"/>
</configuration>
-->

<routes xmlns:xsi="http://www.w3.org/2001/XMLSchema-instance" xsi:noNamespaceSchemaLocation="http://sumo.dlr.de/xsd/routes_file.xsd">
    <vType id="motorcycle_motorcycle" vClass="motorcycle"/>
    <trip id="motorcycle0" depart="0.00" from="-1112847470" to="36054478#4" departLane="best" type="motorcycle_motorcycle" departSpeed="max"/>
    <trip id="motorcycle1" depart="1.26" from="-331683242#2" to="107218837#1" departLane="best" type="motorcycle_motorcycle"/>
    <trip id="motorcycle2" depart="2.52" from="36054475#1" to="532195159" departLane="best" type="motorcycle_motorcycle"/>
    <trip id="motorcycle3" depart="3.78" from="1054124408" to="1227978413" departLane="best" type="motorcycle_motorcycle"/>
    <trip id="motorcycle4" depart="5.04" from="-1079087279#0" to="-995124341#0" departLane="best" type="motorcycle_motorcycle"/>
    <trip id="motorcycle5" depart="6.30" from="-59358848#7" to="59358754" departLane="best" type="motorcycle_motorcycle"/>
    <trip id="motorcycle6" depart="7.56" from="1378838837#3" to="408152821" departLane="best" type="motorcycle_motorcycle"/>
    <trip id="motorcycle7" depart="8.82" from="105201129#4" to="-36054475#4" departLane="best" type="motorcycle_motorcycle"/>
    <trip id="motorcycle8" depart="10.08" from="59358744#1" to="59358695#2" departLane="best" type="motorcycle_motorcycle"/>
    <trip id="motorcycle9" depart="11.34" from="-59358848#9" to="-31756240#5" departLane="best" type="motorcycle_motorcycle"/>
    <trip id="motorcycle10" depart="12.60" from="126774207#3" to="1192378662#2" departLane="best" type="motorcycle_motorcycle"/>
    <trip id="motorcycle11" depart="13.85" from="464465186#6" to="31756240#3" departLane="best" type="motorcycle_motorcycle"/>
    <trip id="motorcycle12" depart="15.11" from="126774207#0" to="217573747" departLane="best" type="motorcycle_motorcycle"/>
    <trip id="motorcycle13" depart="16.37" from="-59358848#9" to="-126774207#1" departLane="best" type="motorcycle_motorcycle"/>
    <trip id="motorcycle14" depart="17.63" from="-1340268915" to="59358869" departLane="best" type="motorcycle_motorcycle"/>
    <trip id="motorcycle15" depart="18.89" from="59358724#1" to="-59358735#0" departLane="best" type="motorcycle_motorcycle"/>
    <trip id="motorcycle16" depart="20.15" from="59358782#2" to="126774207#3" departLane="best" type="motorcycle_motorcycle"/>
    <trip id="motorcycle17" depart="21.41" from="-326870588" to="59358755#1" departLane="best" type="motorcycle_motorcycle" departSpeed="max"/>
    <trip id="motorcycle18" depart="22.67" from="31756240#1" to="59358848#8" departLane="best" type="motorcycle_motorcycle"/>
    <trip id="motorcycle19" depart="23.93" from="36054475#6" to="-31756240#4" departLane="best" type="motorcycle_motorcycle"/>
    <trip id="motorcycle20" depart="25.19" from="330036960" to="492431226#0" departLane="best" type="motorcycle_motorcycle"/>
    <trip id="motorcycle21" depart="26.45" from="59358814#4" to="-59358779#1" departLane="best" type="motorcycle_motorcycle"/>
    <trip id="motorcycle22" depart="27.71" from="1340268914" to="36054710#2" departLane="best" type="motorcycle_motorcycle"/>
    <trip id="motorcycle23" depart="28.97" from="-36054475#2" to="59358746#3" departLane="best" type="motorcycle_motorcycle"/>
    <trip id="motorcycle24" depart="30.23" from="492431225#0" to="-126774207#2" departLane="best" type="motorcycle_motorcycle"/>
    <trip id="motorcycle25" depart="31.49" from="31756240#5" to="-59358848#10" departLane="best" type="motorcycle_motorcycle"/>
    <trip id="motorcycle26" depart="32.75" from="-36054478#5" to="31756240#7" departLane="best" type="motorcycle_motorcycle"/>
    <trip id="motorcycle27" depart="34.01" from="693606163#3" to="1378838837#3" departLane="best" type="motorcycle_motorcycle"/>
    <trip id="motorcycle28" depart="35.27" from="-330030517#1" to="1192378662#1" departLane="best" type="motorcycle_motorcycle"/>
    <trip id="motorcycle29" depart="36.53" from="492431224#2" to="59358884#1" departLane="best" type="motorcycle_motorcycle"/>
    <trip id="motorcycle30" depart="37.79" from="693606163#11" to="31756240#5" departLane="best" type="motorcycle_motorcycle"/>
    <trip id="motorcycle31" depart="39.05" from="-217573745" to="-330038941" departLane="best" type="motorcycle_motorcycle"/>
    <trip id="motorcycle32" depart="40.30" from="-31756240#0" to="349807544#1" departLane="best" type="motorcycle_motorcycle"/>
    <trip id="motorcycle33" depart="41.56" from="-349807544#0" to="543470383#3" departLane="best" type="motorcycle_motorcycle"/>
    <trip id="motorcycle34" depart="42.82" from="-330030512#2" to="1340268915" departLane="best" type="motorcycle_motorcycle"/>
    <trip id="motorcycle35" depart="44.08" from="105317908#1" to="-1103080136#0" departLane="best" type="motorcycle_motorcycle"/>
    <trip id="motorcycle36" depart="45.34" from="-105201129#1" to="59358814#7" departLane="best" type="motorcycle_motorcycle"/>
    <trip id="motorcycle37" depart="46.60" from="693606163#7" to="-330032677#2" departLane="best" type="motorcycle_motorcycle"/>
    <trip id="motorcycle38" depart="47.86" from="36054720#1" to="776970595#1" departLane="best" type="motorcycle_motorcycle"/>
    <trip id="motorcycle39" depart="49.12" from="59358814#7" to="59358782#2" departLane="best" type="motorcycle_motorcycle"/>
    <trip id="motorcycle40" depart="50.38" from="126774193#5" to="59358856#1" departLane="best" type="motorcycle_motorcycle"/>
    <trip id="motorcycle41" depart="51.64" from="36054710#7" to="59358746#0" departLane="best" type="motorcycle_motorcycle"/>
    <trip id="motorcycle42" depart="52.90" from="59358750#0" to="-59358856#1" departLane="best" type="motorcycle_motorcycle" departSpeed="max"/>
    <trip id="motorcycle43" depart="54.16" from="36054712#2" to="-31756240#4" departLane="best" type="motorcycle_motorcycle"/>
    <trip id="motorcycle44" depart="55.42" from="-693606163#0" to="36054475#6" departLane="best" type="motorcycle_motorcycle"/>
    <trip id="motorcycle45" depart="56.68" from="27227507#0" to="-532195159" departLane="best" type="motorcycle_motorcycle"/>
    <trip id="motorcycle46" depart="57.94" from="31756240#2" to="59358832" departLane="best" type="motorcycle_motorcycle"/>
    <trip id="motorcycle47" depart="59.20" from="-59358779#1" to="-59358814#1" departLane="best" type="motorcycle_motorcycle"/>
    <trip id="motorcycle48" depart="60.46" from="-36054478#5" to="-36054475#5" departLane="best" type="motorcycle_motorcycle"/>
    <trip id="motorcycle49" depart="61.72" from="568518767#0" to="36054710#6" departLane="best" type="motorcycle_motorcycle" departSpeed="max"/>
    <trip id="motorcycle50" depart="62.98" from="693606163#10" to="349813159#0" departLane="best" type="motorcycle_motorcycle"/>
    <trip id="motorcycle51" depart="64.24" from="59358897" to="-36054716#0" departLane="best" type="motorcycle_motorcycle" departSpeed="max"/>
    <trip id="motorcycle52" depart="65.50" from="-36054710#0" to="-36054714#0" departLane="best" type="motorcycle_motorcycle"/>
    <trip id="motorcycle53" depart="66.75" from="-59358856#3" to="776970595#1" departLane="best" type="motorcycle_motorcycle"/>
    <trip id="motorcycle54" depart="68.01" from="-36054717#3" to="1054124408" departLane="best" type="motorcycle_motorcycle" departSpeed="max"/>
    <trip id="motorcycle55" depart="69.27" from="-1340268915" to="-1079087279#1" departLane="best" type="motorcycle_motorcycle"/>
    <trip id="motorcycle56" depart="70.53" from="1378838837#3" to="330030512#3" departLane="best" type="motorcycle_motorcycle"/>
    <trip id="motorcycle57" depart="71.79" from="126774207#2" to="59358835#1" departLane="best" type="motorcycle_motorcycle"/>
    <trip id="motorcycle58" depart="73.05" from="59358750#1" to="59358878" departLane="best" type="motorcycle_motorcycle"/>
    <trip id="motorcycle59" depart="74.31" from="27227507#3" to="-552801062#0" departLane="best" type="motorcycle_motorcycle"/>
    <trip id="motorcycle60" depart="75.57" from="-331050303" to="464465177#0" departLane="best" type="motorcycle_motorcycle"/>
    <trip id="motorcycle61" depart="76.83" from="-349807544#1" to="-105201129#4" departLane="best" type="motorcycle_motorcycle"/>
    <trip id="motorcycle62" depart="78.09" from="36054710#4" to="-330032677#2" departLane="best" type="motorcycle_motorcycle"/>
    <trip id="motorcycle63" depart="79.35" from="330032677#2" to="-36054710#7" departLane="best" type="motorcycle_motorcycle"/>
    <trip id="motorcycle64" depart="80.61" from="-59358848#9" to="-59358759#3" departLane="best" type="motorcycle_motorcycle"/>
    <trip id="motorcycle65" depart="81.87" from="-557201422" to="-331683241#0" departLane="best" type="motorcycle_motorcycle" departSpeed="max"/>
    <trip id="motorcycle66" depart="83.13" from="27227507#0" to="36054478#2" departLane="best" type="motorcycle_motorcycle"/>
    <trip id="motorcycle67" depart="84.39" from="-36054711#1" to="-1103080136#3" departLane="best" type="motorcycle_motorcycle"/>
    <trip id="motorcycle68" depart="85.65" from="-59358695#2" to="36054710#0" departLane="best" type="motorcycle_motorcycle"/>
    <trip id="motorcycle69" depart="86.91" from="-59358724#2" to="331683241#2" departLane="best" type="motorcycle_motorcycle"/>
    <trip id="motorcycle70" depart="88.17" from="-146189219#3" to="36054710#4" departLane="best" type="motorcycle_motorcycle" departSpeed="max"/>
    <trip id="motorcycle71" depart="89.43" from="-331683242#1" to="-36054716#1" departLane="best" type="motorcycle_motorcycle"/>
    <trip id="motorcycle72" depart="90.69" from="36054718#0" to="1079087279#4" departLane="best" type="motorcycle_motorcycle"/>
    <trip id="motorcycle73" depart="91.95" from="331683241#1" to="-59358695#3" departLane="best" type="motorcycle_motorcycle"/>
    <trip id="motorcycle74" depart="93.20" from="350579487" to="-59358735#2" departLane="best" type="motorcycle_motorcycle"/>
    <trip id="motorcycle75" depart="94.46" from="1167293941#2" to="105201129#2" departLane="best" type="motorcycle_motorcycle"/>
    <trip id="motorcycle76" depart="95.72" from="59358848#0" to="36054774" departLane="best" type="motorcycle_motorcycle"/>
    <trip id="motorcycle77" depart="96.98" from="1378838837#4" to="59358746#3" departLane="best" type="motorcycle_motorcycle"/>
    <trip id="motorcycle78" depart="98.24" from="330030517#3" to="36054714#1" departLane="best" type="motorcycle_motorcycle"/>
    <trip id="motorcycle79" depart="99.50" from="132909371#0" to="217573747" departLane="best" type="motorcycle_motorcycle" departSpeed="max"/>
    <trip id="motorcycle80" depart="100.76" from="-36054714#1" to="59358848#7" departLane="best" type="motorcycle_motorcycle"/>
    <trip id="motorcycle81" depart="102.02" from="331683241#0" to="59358695#1" departLane="best" type="motorcycle_motorcycle"/>
    <trip id="motorcycle82" depart="103.28" from="330030517#1" to="-1079087279#0" departLane="best" type="motorcycle_motorcycle"/>
    <trip id="motorcycle83" depart="104.54" from="-330030512#2" to="59358782#1" departLane="best" type="motorcycle_motorcycle"/>
    <trip id="motorcycle84" depart="105.80" from="36054710#4" to="59358819#0" departLane="best" type="motorcycle_motorcycle"/>
    <trip id="motorcycle85" depart="107.06" from="59358814#0" to="-36054718#0" departLane="best" type="motorcycle_motorcycle"/>
    <trip id="motorcycle86" depart="108.32" from="776970595#2" to="330030512#2" departLane="best" type="motorcycle_motorcycle"/>
    <trip id="motorcycle87" depart="109.58" from="36054718#0" to="126774207#0" departLane="best" type="motorcycle_motorcycle"/>
    <trip id="motorcycle88" depart="110.84" from="-552810586#2" to="1112847470" departLane="best" type="motorcycle_motorcycle"/>
    <trip id="motorcycle89" depart="112.10" from="1079087279#3" to="-59358735#1" departLane="best" type="motorcycle_motorcycle"/>
    <trip id="motorcycle90" depart="113.36" from="-59358814#1" to="105201129#2" departLane="best" type="motorcycle_motorcycle"/>
    <trip id="motorcycle91" depart="114.62" from="-59358695#1" to="-331683242#0" departLane="best" type="motorcycle_motorcycle"/>
    <trip id="motorcycle92" depart="115.88" from="543470383#1" to="-59358819#0" departLane="best" type="motorcycle_motorcycle"/>
    <trip id="motorcycle93" depart="117.14" from="-59358848#2" to="492431225#1" departLane="best" type="motorcycle_motorcycle"/>
    <trip id="motorcycle94" depart="118.40" from="36054710#4" to="105201129#5" departLane="best" type="motorcycle_motorcycle"/>
    <trip id="motorcycle95" depart="119.65" from="-59358758#1" to="543271084#2" departLane="best" type="motorcycle_motorcycle" departSpeed="max"/>
    <trip id="motorcycle96" depart="120.91" from="-36054720#1" to="107218837#1" departLane="best" type="motorcycle_motorcycle"/>
    <trip id="motorcycle97" depart="122.17" from="-59358848#8" to="800625777" departLane="best" type="motorcycle_motorcycle"/>
    <trip id="motorcycle98" depart="123.43" from="-36054721#2" to="31756240#0" departLane="best" type="motorcycle_motorcycle"/>
    <trip id="motorcycle99" depart="124.69" from="1340268913#1" to="-126774207#1" departLane="best" type="motorcycle_motorcycle"/>
    <trip id="motorcycle100" depart="125.95" from="-36054478#2" to="59358801" departLane="best" type="motorcycle_motorcycle"/>
    <trip id="motorcycle101" depart="127.21" from="492431226#2" to="-36054712#2" departLane="best" type="motorcycle_motorcycle"/>
    <trip id="motorcycle102" depart="128.47" from="-36054478#1" to="59358856#2" departLane="best" type="motorcycle_motorcycle"/>
    <trip id="motorcycle103" depart="129.73" from="31756240#4" to="36054712#1" departLane="best" type="motorcycle_motorcycle"/>
    <trip id="motorcycle104" depart="130.99" from="126774193#6" to="59358835#0" departLane="best" type="motorcycle_motorcycle"/>
    <trip id="motorcycle105" depart="132.25" from="-36054478#5" to="-450546981" departLane="best" type="motorcycle_motorcycle"/>
    <trip id="motorcycle106" depart="133.51" from="59358780#0" to="59358744#2" departLane="best" type="motorcycle_motorcycle" departSpeed="max"/>
    <trip id="motorcycle107" depart="134.77" from="126774207#5" to="-331683240#2" departLane="best" type="motorcycle_motorcycle"/>
    <trip id="motorcycle108" depart="136.03" from="59358695#3" to="-59358750#0" departLane="best" type="motorcycle_motorcycle"/>
    <trip id="motorcycle109" depart="137.29" from="450546981" to="-450546981" departLane="best" type="motorcycle_motorcycle" departSpeed="max"/>
    <trip id="motorcycle110" depart="138.55" from="-349807544#0" to="36054478#3" departLane="best" type="motorcycle_motorcycle"/>
    <trip id="motorcycle111" depart="139.81" from="-59358884#1" to="-59358848#6" departLane="best" type="motorcycle_motorcycle" departSpeed="max"/>
    <trip id="motorcycle112" depart="141.07" from="105317908#0" to="1054124408" departLane="best" type="motorcycle_motorcycle" departSpeed="max"/>
    <trip id="motorcycle113" depart="142.33" from="1103080136#0" to="331683241#2" departLane="best" type="motorcycle_motorcycle" departSpeed="max"/>
    <trip id="motorcycle114" depart="143.59" from="-330030512#1" to="36054475#0" departLane="best" type="motorcycle_motorcycle"/>
    <trip id="motorcycle115" depart="144.85" from="1192378662#0" to="59358695#1" departLane="best" type="motorcycle_motorcycle" departSpeed="max"/>
    <trip id="motorcycle116" depart="146.10" from="-59358744#2" to="349807544#2" departLane="best" type="motorcycle_motorcycle" departSpeed="max"/>
    <trip id="motorcycle117" depart="147.36" from="-36054712#0" to="36054710#0" departLane="best" type="motorcycle_motorcycle"/>
    <trip id="motorcycle118" depart="148.62" from="36054475#6" to="1378838836#3" departLane="best" type="motorcycle_motorcycle"/>
    <trip id="motorcycle119" depart="149.88" from="1167293941#1" to="59358878" departLane="best" type="motorcycle_motorcycle"/>
    <trip id="motorcycle120" depart="151.14" from="-59358848#0" to="-217573744" departLane="best" type="motorcycle_motorcycle"/>
    <trip id="motorcycle121" depart="152.40" from="-59358782#1" to="-1103080136#3" departLane="best" type="motorcycle_motorcycle"/>
    <trip id="motorcycle122" depart="153.66" from="59358803" to="59358744#0" departLane="best" type="motorcycle_motorcycle"/>
    <trip id="motorcycle123" depart="154.92" from="-36054712#0" to="59358755#1" departLane="best" type="motorcycle_motorcycle"/>
    <trip id="motorcycle124" depart="156.18" from="-693606163#5" to="-132909371#0" departLane="best" type="motorcycle_motorcycle"/>
    <trip id="motorcycle125" depart="157.44" from="331683240#0" to="-217573745" departLane="best" type="motorcycle_motorcycle"/>
    <trip id="motorcycle126" depart="158.70" from="59358814#1" to="59358848#6" departLane="best" type="motorcycle_motorcycle"/>
    <trip id="motorcycle127" depart="159.96" from="330031963" to="-408152821" departLane="best" type="motorcycle_motorcycle"/>
    <trip id="motorcycle128" depart="161.22" from="492431223#0" to="-1103080136#0" departLane="best" type="motorcycle_motorcycle"/>
    <trip id="motorcycle129" depart="162.48" from="-330030512#3" to="-59358744#1" departLane="best" type="motorcycle_motorcycle"/>
    <trip id="motorcycle130" depart="163.74" from="350579487" to="552801062#1" departLane="best" type="motorcycle_motorcycle"/>
    <trip id="motorcycle131" depart="165.00" from="349807544#0" to="-36054716#1" departLane="best" type="motorcycle_motorcycle"/>
    <trip id="motorcycle132" depart="166.26" from="-59358735#2" to="326870588" departLane="best" type="motorcycle_motorcycle"/>
    <trip id="motorcycle133" depart="167.52" from="492431226#4" to="330032677#1" departLane="best" type="motorcycle_motorcycle"/>
    <trip id="motorcycle134" depart="168.78" from="-693606163#3" to="330036960" departLane="best" type="motorcycle_motorcycle"/>
    <trip id="motorcycle135" depart="170.04" from="59358744#0" to="349807544#0" departLane="best" type="motorcycle_motorcycle"/>
    <trip id="motorcycle136" depart="171.30" from="1079087279#1" to="27227507#4" departLane="best" type="motorcycle_motorcycle"/>
    <trip id="motorcycle137" depart="172.55" from="59358695#3" to="1112847470" departLane="best" type="motorcycle_motorcycle"/>
    <trip id="motorcycle138" depart="173.81" from="-349807544#1" to="-1079087279#4" departLane="best" type="motorcycle_motorcycle"/>
    <trip id="motorcycle139" depart="175.07" from="27227507#3" to="464465186#1" departLane="best" type="motorcycle_motorcycle"/>
    <trip id="motorcycle140" depart="176.33" from="-330030517#0" to="105201129#2" departLane="best" type="motorcycle_motorcycle"/>
    <trip id="motorcycle141" depart="177.59" from="1079087279#3" to="-330032677#1" departLane="best" type="motorcycle_motorcycle"/>
    <trip id="motorcycle142" depart="178.85" from="330080541#1" to="-435423679" departLane="best" type="motorcycle_motorcycle"/>
    <trip id="motorcycle143" depart="180.11" from="36054478#5" to="126774193#0" departLane="best" type="motorcycle_motorcycle"/>
    <trip id="motorcycle144" depart="181.37" from="1333419876" to="-36054718#0" departLane="best" type="motorcycle_motorcycle"/>
    <trip id="motorcycle145" depart="182.63" from="-59358759#0" to="-330030512#1" departLane="best" type="motorcycle_motorcycle"/>
    <trip id="motorcycle146" depart="183.89" from="-31756240#0" to="-105317908#0" departLane="best" type="motorcycle_motorcycle"/>
    <trip id="motorcycle147" depart="185.15" from="132909371#1" to="-146189219#0" departLane="best" type="motorcycle_motorcycle"/>
    <trip id="motorcycle148" depart="186.41" from="36054475#6" to="-36054711#0" departLane="best" type="motorcycle_motorcycle"/>
    <trip id="motorcycle149" depart="187.67" from="343842757#1" to="146189219#0" departLane="best" type="motorcycle_motorcycle"/>
    <trip id="motorcycle150" depart="188.93" from="59358848#6" to="552801723" departLane="best" type="motorcycle_motorcycle"/>
    <trip id="motorcycle151" depart="190.19" from="800625776" to="-59358819#0" departLane="best" type="motorcycle_motorcycle" departSpeed="max"/>
    <trip id="motorcycle152" depart="191.45" from="59358780#1" to="-59358758#0" departLane="best" type="motorcycle_motorcycle"/>
    <trip id="motorcycle153" depart="192.71" from="-59358744#0" to="-693606163#9" departLane="best" type="motorcycle_motorcycle"/>
    <trip id="motorcycle154" depart="193.97" from="-1079087279#2" to="36054714#1" departLane="best" type="motorcycle_motorcycle"/>
    <trip id="motorcycle155" depart="195.23" from="-31756240#1" to="330030512#3" departLane="best" type="motorcycle_motorcycle"/>
    <trip id="motorcycle156" depart="196.49" from="-132909371#1" to="-800625776" departLane="best" type="motorcycle_motorcycle"/>
    <trip id="motorcycle157" depart="197.75" from="-552801723" to="59358873#2" departLane="best" type="motorcycle_motorcycle"/>
    <trip id="motorcycle158" depart="199.00" from="-59358750#1" to="-59358814#7" departLane="best" type="motorcycle_motorcycle"/>
    <trip id="motorcycle159" depart="200.26" from="-59358758#0" to="-330032677#2" departLane="best" type="motorcycle_motorcycle"/>
    <trip id="motorcycle160" depart="201.52" from="331683242#0" to="-59358744#0" departLane="best" type="motorcycle_motorcycle"/>
    <trip id="motorcycle161" depart="202.78" from="-59358724#1" to="-59358754" departLane="best" type="motorcycle_motorcycle"/>
    <trip id="motorcycle162" depart="204.04" from="-59358819#0" to="532195159" departLane="best" type="motorcycle_motorcycle"/>
    <trip id="motorcycle163" depart="205.30" from="-36054716#0" to="-330032677#2" departLane="best" type="motorcycle_motorcycle"/>
    <trip id="motorcycle164" depart="206.56" from="-59358782#1" to="217573745" departLane="best" type="motorcycle_motorcycle"/>
    <trip id="motorcycle165" depart="207.82" from="-59358835#1" to="616268847" departLane="best" type="motorcycle_motorcycle"/>
    <trip id="motorcycle166" depart="209.08" from="59358814#2" to="105201129#4" departLane="best" type="motorcycle_motorcycle"/>
    <trip id="motorcycle167" depart="210.34" from="105201129#2" to="-36054475#3" departLane="best" type="motorcycle_motorcycle"/>
    <trip id="motorcycle168" depart="211.60" from="36054475#1" to="36054714#0" departLane="best" type="motorcycle_motorcycle"/>
    <trip id="motorcycle169" depart="212.86" from="-552810586#3" to="330032677#1" departLane="best" type="motorcycle_motorcycle"/>
    <trip id="motorcycle170" depart="214.12" from="-326870588" to="-59358754" departLane="best" type="motorcycle_motorcycle" departSpeed="max"/>
    <trip id="motorcycle171" depart="215.38" from="330032677#0" to="126774193#6" departLane="best" type="motorcycle_motorcycle" departSpeed="max"/>
    <trip id="motorcycle172" depart="216.64" from="105317908#0" to="1378838837#3" departLane="best" type="motorcycle_motorcycle" departSpeed="max"/>
    <trip id="motorcycle173" depart="217.90" from="1167293941#2" to="-450546981" departLane="best" type="motorcycle_motorcycle"/>
    <trip id="motorcycle174" depart="219.16" from="59358695#2" to="543271084#2" departLane="best" type="motorcycle_motorcycle"/>
    <trip id="motorcycle175" depart="220.42" from="-59358873#1" to="-59358884#0" departLane="best" type="motorcycle_motorcycle"/>
    <trip id="motorcycle176" depart="221.68" from="59358848#8" to="-105317923" departLane="best" type="motorcycle_motorcycle"/>
    <trip id="motorcycle177" depart="222.94" from="464465186#0" to="-36054475#0" departLane="best" type="motorcycle_motorcycle"/>
    <trip id="motorcycle178" depart="224.20" from="-36054710#2" to="-59358814#2" departLane="best" type="motorcycle_motorcycle"/>
    <trip id="motorcycle179" depart="225.45" from="330036960" to="-59358755#2" departLane="best" type="motorcycle_motorcycle"/>
    <trip id="motorcycle180" depart="226.71" from="132909371#0" to="126774193#7" departLane="best" type="motorcycle_motorcycle" departSpeed="max"/>
    <trip id="motorcycle181" depart="227.97" from="59358848#4" to="23415702#1" departLane="best" type="motorcycle_motorcycle"/>
    <trip id="motorcycle182" depart="229.23" from="-59358695#3" to="330080541#1" departLane="best" type="motorcycle_motorcycle"/>
    <trip id="motorcycle183" depart="230.49" from="36054717#0" to="-105317908#0" departLane="best" type="motorcycle_motorcycle"/>
    <trip id="motorcycle184" depart="231.75" from="776970595#3" to="59358761#0" departLane="best" type="motorcycle_motorcycle"/>
    <trip id="motorcycle185" depart="233.01" from="-1340268915" to="36054711#2" departLane="best" type="motorcycle_motorcycle"/>
    <trip id="motorcycle186" depart="234.27" from="-331683240#0" to="776970595#2" departLane="best" type="motorcycle_motorcycle"/>
    <trip id="motorcycle187" depart="235.53" from="1054124407#2" to="36054720#1" departLane="best" type="motorcycle_motorcycle"/>
    <trip id="motorcycle188" depart="236.79" from="-552810586#2" to="331683242#3" departLane="best" type="motorcycle_motorcycle"/>
    <trip id="motorcycle189" depart="238.05" from="-1079087279#5" to="543271084#3" departLane="best" type="motorcycle_motorcycle"/>
    <trip id="motorcycle190" depart="239.31" from="-59358695#1" to="-36054475#2" departLane="best" type="motorcycle_motorcycle"/>
    <trip id="motorcycle191" depart="240.57" from="105317908#0" to="1227978413" departLane="best" type="motorcycle_motorcycle" departSpeed="max"/>
    <trip id="motorcycle192" depart="241.83" from="-126774203" to="-36054475#0" departLane="best" type="motorcycle_motorcycle"/>
    <trip id="motorcycle193" depart="243.09" from="-59358856#2" to="1378838836#3" departLane="best" type="motorcycle_motorcycle"/>
    <trip id="motorcycle194" depart="244.35" from="36054710#6" to="-331683241#0" departLane="best" type="motorcycle_motorcycle"/>
    <trip id="motorcycle195" depart="245.61" from="552810586#4" to="-59358819#1" departLane="best" type="motorcycle_motorcycle"/>
    <trip id="motorcycle196" depart="246.87" from="800625776" to="-59358848#3" departLane="best" type="motorcycle_motorcycle" departSpeed="max"/>
    <trip id="motorcycle197" depart="248.13" from="105317911#0" to="-59358819#1" departLane="best" type="motorcycle_motorcycle"/>
    <trip id="motorcycle198" depart="249.39" from="-217573744" to="59358848#5" departLane="best" type="motorcycle_motorcycle"/>
    <trip id="motorcycle199" depart="250.65" from="31756240#5" to="435423678#0" departLane="best" type="motorcycle_motorcycle"/>
    <trip id="motorcycle200" depart="251.90" from="-59358884#1" to="330032677#1" departLane="best" type="motorcycle_motorcycle" departSpeed="max"/>
    <trip id="motorcycle201" depart="253.16" from="1079087279#0" to="36054710#0" departLane="best" type="motorcycle_motorcycle"/>
    <trip id="motorcycle202" depart="254.42" from="800625776" to="27227507#3" departLane="best" type="motorcycle_motorcycle" departSpeed="max"/>
    <trip id="motorcycle203" depart="255.68" from="543271084#4" to="59358878" departLane="best" type="motorcycle_motorcycle"/>
    <trip id="motorcycle204" depart="256.94" from="693606163#4" to="-59358814#1" departLane="best" type="motorcycle_motorcycle"/>
    <trip id="motorcycle205" depart="258.20" from="59358724#0" to="36054478#5" departLane="best" type="motorcycle_motorcycle" departSpeed="max"/>
    <trip id="motorcycle206" depart="259.46" from="-1079087279#0" to="59358695#1" departLane="best" type="motorcycle_motorcycle"/>
    <trip id="motorcycle207" depart="260.72" from="59358814#3" to="59358814#2" departLane="best" type="motorcycle_motorcycle"/>
    <trip id="motorcycle208" depart="261.98" from="-59358801" to="36054716#0" departLane="best" type="motorcycle_motorcycle" departSpeed="max"/>
    <trip id="motorcycle209" depart="263.24" from="568518767#0" to="105201129#4" departLane="best" type="motorcycle_motorcycle" departSpeed="max"/>
    <trip id="motorcycle210" depart="264.50" from="331683240#2" to="-59358848#9" departLane="best" type="motorcycle_motorcycle"/>
    <trip id="motorcycle211" depart="265.76" from="59358848#4" to="126774207#4" departLane="best" type="motorcycle_motorcycle"/>
    <trip id="motorcycle212" depart="267.02" from="-36054773#0" to="-800625776" departLane="best" type="motorcycle_motorcycle"/>
    <trip id="motorcycle213" depart="268.28" from="31756240#3" to="-59358848#6" departLane="best" type="motorcycle_motorcycle"/>
    <trip id="motorcycle214" depart="269.54" from="-59358780#1" to="330036960" departLane="best" type="motorcycle_motorcycle"/>
    <trip id="motorcycle215" depart="270.80" from="-217573745" to="-59358755#1" departLane="best" type="motorcycle_motorcycle"/>
    <trip id="motorcycle216" depart="272.06" from="-330030517#1" to="1112847470" departLane="best" type="motorcycle_motorcycle"/>
    <trip id="motorcycle217" depart="273.32" from="-59358780#1" to="-59358848#6" departLane="best" type="motorcycle_motorcycle"/>
    <trip id="motorcycle218" depart="274.58" from="-1103080136#1" to="776970595#2" departLane="best" type="motorcycle_motorcycle"/>