<?xml version="1.0" encoding="UTF-8"?>
<routes>
    <vType id="default_car" vClass="passenger" />


    <vTypeDistribution id="mg_road_mix">
        <vType id="motorcycle" vClass="motorcycle" probability="0.5174" />
        <vType id="car" vClass="passenger" probability="0.2490" />
        <vType id="auto" vClass="taxi" probability="0.1891" />
        <vType id="bus" vClass="bus" probability="0.0313" />
        <vType id="truck" vClass="truck" probability="0.0083" />
    </vTypeDistribution>

    <flow 
        id="from_west_straight" 
        begin="28800" end="32400" 
        number="3019" 
        type="mg_road_mix" 
        from="263812623#1" 
        to="638541497#16" />
    <flow 
        id="from_west_left_turn" 
        begin="28800" end="32400" 
        number="647" 
        type="mg_road_mix" 
        from="263812623#1" 
        to="328349209#9" />
    <flow 
        id="from_west_right_turn" 
        begin="28800" end="32400" 
        number="647" 
        type="mg_road_mix" 
        from="263812623#1" 
        to="1148421491#1" />

    <flow 
        id="from_east_straight" 
        begin="28800" end="32400" 
        number="2638" 
        type="mg_road_mix" 
        from="1354145734#1" 
        to="638541495#1" />
    <flow 
        id="from_east_left_turn" 
        begin="28800" end="32400" 
        number="565" 
        type="mg_road_mix" 
        from="1354145734#1" 
        to="1148421491#1" />
    <flow 
        id="from_east_right_turn" 
        begin="28800" end="32400" 
        number="565" 
        type="mg_road_mix" 
        from="1354145734#1" 
        to="328349209#9" />

    <flow 
        id="from_south_straight" 
        begin="28800" end="32400" 
        number="103" 
        type="mg_road_mix" 
        from="638541493#1" 
        to="328349209#9" />
    <flow 
        id="from_south_left_turn" 
        begin="28800" end="32400" 
        number="464" 
        type="mg_road_mix" 
        from="638541493#1" 
        to="638541495#2" />
    <flow 
        id="from_south_right_turn" 
        begin="28800" end="32400" 
        number="464" 
        type="mg_road_mix" 
        from="638541493#1" 
        to="638541497#1" />

</routes>