<?xml version="1.0" encoding="UTF-8"?>

<!-- generated on 2025-11-07 14:06:10.024680 by randomTrips.py v1_24_0+0000-b72eb3fabc8
<configuration>
    <net-file value="osm.net.xml.gz"/>
    <output-trip-file value="background.rou.xml"/>
    <period value="3.6"/>
</configuration>
-->

<!-- generated on 2025-11-07 14:06:09 by Eclipse SUMO duarouter Version 1.24.0
<duarouterConfiguration xmlns:xsi="http://www.w3.org/2001/XMLSchema-instance" xsi:noNamespaceSchemaLocation="http://sumo.dlr.de/xsd/duarouterConfiguration.xsd">

    <input>
        <net-file value="osm.net.xml.gz"/>
        <route-files value="background.rou.xml"/>
    </input>

    <output>
        <output-file value="routes.rou.xml"/>
        <alternatives-output value="NUL"/>
    </output>

    <time>
        <begin value="0"/>
        <end value="3600.0"/>
    </time>

    <report>
        <no-warnings value="true"/>
        <ignore-errors value="true"/>
        <no-step-log value="true"/>
    </report>

</duarouterConfiguration>
-->

<routes xmlns:xsi="http://www.w3.org/2001/XMLSchema-instance" xsi:noNamespaceSchemaLocation="http://sumo.dlr.de/xsd/routes_file.xsd">
    <vehicle id="0" depart="0.00">
        <route edges="169709329#5 1103062101 169709317#4 -1103062099#1"/>
    </vehicle>
    <vehicle id="1" depart="3.60">
        <route edges="-26284183#2 -26284183#1 -26284183#0 -1058623188#1 -1058623188#0 464465205#0 26284129#0 26284129#3 26284129#4 26284129#5 26284129#6 26284129#7 26284129#8 -26284129#8 -26284129#7"/>
    </vehicle>
    <vehicle id="2" depart="7.20">
        <route edges="26284129#7 26284129#8 37110889#0 37110889#1 37110889#2 128515257#0 128515257#1 128515257#2 -217536616#1 -217536616#0 213042766#0 213042766#2 213042766#3 213042766#4 213042766#5"/>
    </vehicle>
    <vehicle id="3" depart="10.80">
        <route edges="491106117#3 311366226#0 -132907562#2 688413056#1 688413056#2 688413056#3 132907566#0 132907566#1 -132907566#1"/>
    </vehicle>
    <vehicle id="4" depart="14.40">
        <route edges="-95857804#5 -95857804#4 -95857804#3 -95857804#1 -95857804#0 217536626#2 217536616#0 217536616#1 331497720#0 331497720#1 1092308702#0 1354145734#0 1354145734#1 1354145734#2 38522161#1 328349209#0 328349209#1 328349209#4 328349209#6 328349209#7 328349209#8 328349209#9 328349209#11 796846477 36257667#0 36257667#1 36257667#2 36257667#3 36257667#4 36257667#5 36257667#6 36257667#7 36257667#8 36257667#9 36257667#10 36257667#11 796846457 -169709308#2 1103062103 -1103062103"/>
    </vehicle>
    <vehicle id="5" depart="18.00">
        <route edges="-213042766#4 -213042766#3 -213042766#2 -213042766#0 217536616#0 217536616#1 -128515257#2 -128515257#1 -128515257#0 -37110889#2 -37110889#1 -37110889#0 -26284129#8 -26284129#7 -26284129#6 -26284129#5 -26284129#4 -26284129#3 -26284129#0 638541497#20 638541497#21 638541497#22 638541497#23 638541497#24 1227985795"/>
    </vehicle>
    <vehicle id="6" depart="21.60">
        <route edges="-1103062098#1 -169709329#0 36257667#3 36257667#4 36257667#5 36257667#6 36257667#7 36257667#8 36257667#9 36257667#10 36257667#11 36257667#12 36257667#13 36257667#14 36257667#15 36257667#17 638541497#20 638541497#21 553250634#1 217536625#2 -217536611#1 -217536593"/>
    </vehicle>
    <vehicle id="7" depart="25.20">
        <route edges="169711262#3 169711262#4 132907557#0 132907557#1 132907557#2 132907563#3 132907563#4 132907563#5 -492441116#10 -492441116#9 -492441116#8 -492441116#7 132907562#0 132907562#1"/>
    </vehicle>
    <vehicle id="8" depart="28.80">
        <route edges="-213042766#6 1104858880 213042783#0 213042783#1 -213042787#2 -213042787#1 -213042787#0 -49685141#1 217536616#0 217536616#1 331497720#0 331497720#1 1092308702#0 1354145734#0 1354145734#1 1354145734#2 1259587204#1 157571651#0 638541497#1 638541497#3 638541497#4 638541497#5 638541497#6 638541497#7 638541497#8 638541497#9 638541497#10 169709291#0"/>
    </vehicle>
    <vehicle id="9" depart="32.40">
        <route edges="36853688#1 36853688#2 36853688#4 36853688#7 36853688#8 36853688#10 638541493#1 763183692 1259587203#1 328349209#0 328349209#1 328349209#4 328349209#6 328349209#7 328349209#8 328349209#9 328349209#11 38685277#0 38685277#1 38685277#2 -1053381286#0 -1093123616#1"/>
    </vehicle>
    <vehicle id="10" depart="36.00">
        <route edges="36257667#9 1103062096 49687940#10 37106535#2 37106535#3 169711263#0 169711263#1 213087089"/>
    </vehicle>
    <vehicle id="11" depart="39.60">
        <route edges="-484510040#17 484510040#16 796846477 36257667#0 36257667#1 36257667#2 36257667#3 36257667#4 36257667#5 36257667#6 132907563#0 132907563#1 132907563#2 132907563#3 -169711279#1 -169711276#1 -169711276#0"/>
    </vehicle>
    <vehicle id="12" depart="43.20">
        <route edges="638541497#8 638541497#9 638541497#10 638541497#11 638541497#12 638541497#13 638541497#14 638541497#15 638541497#16 638541497#17 638541497#19 638541497#20 638541497#21 553250634#1 -553250634#1"/>
    </vehicle>
    <vehicle id="13" depart="46.80">
        <route edges="-1227950011 -1103060081 492441116#4 492441116#5 492441116#6 492441116#7 492441116#8 492441116#9 492441116#10 492441116#11 492441116#12 169711262#0 169711262#1 169711262#3 169711262#4 169711262#5 169711262#6 169711262#7 169711262#9 37111253#0 37111253#1 147545792 -147545754#1"/>
    </vehicle>
    <vehicle id="14" depart="50.40">
        <route edges="37111253#1 -37111253#1 -37111253#0 1312070497 -169711262#7 -169711262#6 -169711262#5 132907557#0 132907557#1 132907557#2 -132907563#2 -132907563#1 -132907563#0 36257667#7 -169709320#3 -169709320#2 -169709320#1 -169709320#0 638541497#12 638541497#13 638541497#14 169709308#0 169709308#1"/>
    </vehicle>
    <vehicle id="15" depart="54.00">
        <route edges="366994282 342001778#0 342001778#1 342001778#2 342001778#3 342001778#5 26283801#1 26283801#3 323639494#1 1312070497 -169711262#7 -169711262#6 -169711262#5 132907557#0 132907557#1 132907557#2 -132907563#2 -132907563#1 -132907563#0 36257667#7 36257667#8 36257667#9 36257667#10 36257667#11 36257667#12 36257667#13 36257667#14 36257667#15 36257667#17 26284129#0 26284129#3 26284129#4 26284129#5 26284129#6 26284129#7 26284129#8"/>
    </vehicle>
    <vehicle id="16" depart="57.60">
        <route edges="-49687940#3 -49687940#2 638541497#22 638541497#23 492441116#1 492441116#2 492441116#4 492441116#5 492441116#6 492441116#7 492441116#8 492441116#9 492441116#10 -132907563#5 -132907563#4 -132907563#3 132907563#3"/>
    </vehicle>
    <vehicle id="17" depart="61.20">
        <route edges="37110887#14 -37110889#2 -37110889#1 -37110889#0 -26284129#8 -26284129#7 -26284129#6 -26284129#5 -26284129#4 -26284129#3 -26284129#0 638541497#20 -169709300#1 -169709302#1 169709327#0 169709327#1"/>
    </vehicle>
    <vehicle id="18" depart="64.80">
        <route edges="464465205#0 464465205#2 464465205#3 464465205#4 1354145735 1354145734#0 1354145734#1 1354145734#2 38522161#1 328349209#0 328349209#1 328349209#4 328349209#6 328349209#7 328349209#8 328349209#9 328349209#11 38685277#0 38685277#1 38685277#2 38685277#3 38685277#6 1259587202#1 323639494#1 37111253#0 147545754#0 147545754#1 147545754#2"/>
    </vehicle>
    <vehicle id="19" depart="68.40">
        <route edges="213042787#7 -213042787#7 -213042787#6 -213042787#5 -213042787#3 -213042787#2 -213042787#1 -213042787#0 -49685141#1 217536616#0 217536616#1 331497720#0 331497720#1 1092308702#0 1354145734#0 1354145734#1 1354145734#2 1259587204#1 157571651#0 132782110#1 1148421491#0 1148421491#1 327550407#0 327550407#1 -112028496#6 -112028496#5 -112028496#4 -112028496#3 -112028496#2 -112028496#1"/>
    </vehicle>
    <vehicle id="20" depart="72.00">
        <route edges="-213042787#0 -49685141#1 217536616#0 217536616#1 331497720#0 331497720#1 1092308702#0 1354145734#0 1354145734#1 1354145734#2 38522161#1 328349209#0 328349209#1 328349209#4 328349209#6 328349209#7 328349209#8 328349209#9 328349209#11 -484510040#17 -484510040#15 -484510040#14"/>
    </vehicle>
    <vehicle id="21" depart="75.60">
        <route edges="-1126178462 37110887#3 37110887#4 37110887#5 37110887#6 37110887#7 37110887#9 37110887#10 37110887#11 37110887#13 37110887#14 128515257#0 128515257#1 128515257#2 331497720#0 331497720#1 1092308702#0 1354145734#0 1354145734#1 1354145734#2 1259587204#1 157571651#0 132782110#1 1148421491#0 1148421491#1 327550407#0 327550407#1 327550407#3 -328837813#1 -328837813#0"/>
    </vehicle>
    <vehicle id="22" depart="79.20">
        <route edges="-49685138 95857804#3 49685139 37110887#9 37110887#10 37110887#11 37110887#13 37110887#14 -37110889#2 -37110889#1 -37110889#0 -26284129#8 -26284129#7 -26284129#6 -26284129#5 -26284129#4 -26284129#3 -26284129#0 638541497#20 638541497#21 553250634#1 217536625#2 217536625#3 217536619#1 -217536623#0"/>
    </vehicle>
    <vehicle id="23" depart="82.80">
        <route edges="-26284129#5 -26284129#4 -26284129#3 -26284129#0 464465205#2 464465205#3 464465205#4 1354145735 1354145734#0 1354145734#1 1354145734#2 1259587204#1 157571651#0 638541497#1 638541497#3 638541497#4 638541497#5 638541497#6 638541497#7 638541497#8 638541497#9 638541497#10 638541497#11 638541497#12 638541497#13 638541497#14 638541497#15"/>
    </vehicle>
    <vehicle id="24" depart="86.40">
        <route edges="169711262#1 169711262#3 169711262#4 132907557#0 132907557#1 132907557#2 -132907563#2 -132907563#1 -132907563#0 36257667#7 -169709320#3 -169709320#2 -169709317#4 -169709317#2 169709317#2"/>
    </vehicle>
    <vehicle id="25" depart="90.00">
        <route edges="-169709329#3 -1103062097 36257667#6 36257667#7 36257667#8 36257667#9 36257667#10 36257667#11 36257667#12 36257667#13 36257667#14 36257667#15 36257667#17 26284129#0 26284129#3 26284129#4 26284129#5 26284129#6 26284129#7"/>
    </vehicle>
    <vehicle id="26" depart="93.60">
        <route edges="796846477 36257667#0 36257667#1 36257667#2 36257667#3 36257667#4 36257667#5 36257667#6 132907563#0 132907563#1 132907563#2 -132907557#2 -132907557#1 -132907557#0 169711262#5 169711262#6 169711262#7"/>
    </vehicle>
    <vehicle id="27" depart="97.20">
        <route edges="132907557#2 -132907563#2 -132907563#1 -132907563#0 36257667#7 36257667#8 36257667#9 36257667#10 36257667#11 36257667#12 36257667#13 36257667#14 36257667#15 36257667#17 464465205#2 464465205#3 464465205#4 1354145735 1092308701#1 -331497720#1 -331497720#0 -217536616#1 -217536616#0 49685141#1 49685141#2 213042786#0 213042786#1"/>
    </vehicle>
    <vehicle id="28" depart="100.80">
        <route edges="37110904#1 37110904#2 -95857804#4 -95857804#3 -95857804#1 -95857804#0 217536626#2 217536616#0 217536616#1 331497720#0 331497720#1 1092308702#0 1354145734#0 1354145734#1 1354145734#2 38522161#1 328349209#0 328349209#1 328349209#4 328349209#6 328349209#7 328349209#8 328349209#9 328349209#11 796846477 36257667#0 36257667#1 36257667#2 36257667#3 36257667#4 36257667#5 36257667#6 36257667#7 36257667#8 36257667#9 36257667#10 36257667#11 796846457 169709329#7 346533014#0"/>
    </vehicle>
    <vehicle id="29" depart="104.40">
        <route edges="-213042787#1 -213042787#0 -49685141#1 217536616#0 217536616#1 331497720#0 331497720#1 1092308702#0 1354145734#0 1354145734#1 1354145734#2 1259587204#1 157571651#0 638541497#1 638541497#3 638541497#4 638541497#5 638541497#6 638541497#7 638541497#8 638541497#9 638541497#10 638541497#11 638541497#12 638541497#13 638541497#14 638541497#15 638541497#16 169709293#1 -1103062105"/>
    </vehicle>
    <vehicle id="30" depart="108.00">
        <route edges="-37110889#1"/>
    </vehicle>
    <vehicle id="31" depart="111.60">
        <route edges="-188444433#1 -26284129#8 -26284129#7 -26284129#6 -26284129#5 -26284129#4 -26284129#3 -26284129#0 638541497#20 638541497#21"/>
    </vehicle>
    <vehicle id="32" depart="115.20">
        <route edges="484510040#16 38685277#0 38685277#1 38685277#2 38685277#3 38685277#6 1259587202#1 323639494#1 1312070497 -169711262#7 -169711262#6 -169711262#5 -169711262#4 -169711262#3 -169711262#1 -169711262#0 -492441116#12"/>
    </vehicle>
    <vehicle id="33" depart="118.80">
        <route edges="169711262#9 1312070497 -169711262#7 -169711262#6 -169711262#5 132907557#0 132907557#1 132907557#2 -132907563#2 -132907563#1 -132907563#0 36257667#7 36257667#8 36257667#9 36257667#10 36257667#11 36257667#12 36257667#13 36257667#14 36257667#15 36257667#17 464465205#2 464465205#3 464465205#4 1354145735 1354145734#0 1354145734#1 1354145734#2 1259587204#1 327550409#0 327550409#1 1101271053"/>
    </vehicle>
    <vehicle id="34" depart="122.40">
        <route edges="-26284129#3 -26284129#0 638541497#20 638541497#21 638541497#22 638541497#23 638541497#24 638541497#25 37106518#0 -132907551 132907566#2 688413055 -37106518#1"/>
    </vehicle>
    <vehicle id="35" depart="126.00">
        <route edges="132907562#0 132907562#1 -132907562#1 -132907562#0 -492441116#6 -169711281#1 -169711281#0 -49687940#3 -49687940#2 1058623187#4 1058623187#5 464465205#0 26284129#0 26284129#3 26284129#4 26284129#5 26284129#6 26284129#7 26284129#8 37110889#0 37110889#1 37110889#2 -37110887#14 -37110887#13 -37110887#11 -37110887#10 -37110887#9 -37110887#7 -37110887#6"/>
    </vehicle>
    <vehicle id="36" depart="129.60">
        <route edges="1447075496 1447075497#1 -169709291#1 -1103062100 1103062099#1 169709320#2 169709320#3 36257667#8 36257667#9 36257667#10 132907559#0 132907559#1 -49687940#6 491106117#0 491106117#1 492441116#8"/>
    </vehicle>
    <vehicle id="37" depart="133.20">
        <route edges="-688413055 -132907566#2 -132907566#1 -132907566#0 -688413056#3 -688413056#2 -688413056#1 -132907562#1 -132907562#0 -492441116#6 -169711281#1 -169711281#0 -49687940#3 -49687940#2 1058623187#4 1058623187#5 464465205#0 26284129#0 26284129#3 26284129#4 26284129#5 26284129#6 26284129#7 26284129#8 -26284129#8 -26284129#7 -26284129#6 -26284129#5 -26284129#4 -26284129#3"/>
    </vehicle>
    <vehicle id="38" depart="136.80">
        <route edges="95857804#5 95857804#6 37110887#4 37110887#5 37110887#6 37110887#7 37110887#9 37110887#10 37110887#11 37110887#13 37110887#14 128515257#0 128515257#1 128515257#2 331497720#0 331497720#1 1092308702#0 1354145734#0 1354145734#1 1354145734#2 1259587204#1"/>
    </vehicle>
    <vehicle id="39" depart="140.40">
        <route edges="-1199463384 169711272#1 -491106117#4 -491106117#3 -491106117#2 -491106117#1 -491106117#0 -49687940#4 -49687940#3 -49687940#2 1058623187#4 1058623187#5 464465205#0 464465205#2 464465205#3 464465205#4 1354145735 1354145734#0 1354145734#1 1354145734#2 1259587204#1 157571651#0 132782110#1 1148421491#0 1148421491#1 327550407#0 327550407#1 -112028496#6 -112028496#5 -112028496#4 -112028496#3 -112028496#2"/>
    </vehicle>
    <vehicle id="40" depart="144.00">
        <route edges="-132907559#1 -132907559#0 36257667#11 796846457 -169709329#6 169709329#6"/>
    </vehicle>
    <vehicle id="41" depart="147.60">
        <route edges="36257667#13 36257667#14 169709302#0 169709327#0 169709327#1 169709327#2 49687940#6 -132907559#1 -132907559#0 36257667#11 796846457 -169709308#2 1103062103 346533014#1 1103062104#0"/>
    </vehicle>
    <vehicle id="42" depart="151.20">
        <route edges="-1104891073#0 -492441116#12 -492441116#11 -492441116#10 -492441116#9 -492441116#8 -491106117#1 -491106117#0 -49687940#4 -49687940#3 -49687940#2 1058623187#4"/>
    </vehicle>
    <vehicle id="43" depart="154.80">
        <route edges="95857804#4 -37110904#2 -37110904#1 -37110904#0 -49685141#2 -49685141#1 217536616#0 217536616#1 331497720#0 331497720#1 1092308702#0 1354145734#0 1354145734#1 1354145734#2 38522161#1 328349209#0 328349209#1 328349209#4 328349209#6 328349209#7 328349209#8 328349209#9 328349209#11 -484510040#17 -484510040#15 -484510040#14 -484510040#13 -484510040#12 -484510040#11 -484510040#9 -484510040#8 -484510040#6 -484510040#4 -484510040#2 603115724#1 603115724#2 727741259 131388427#3 131388427#4 131388427#5 131388427#6"/>
    </vehicle>
    <vehicle id="44" depart="158.40">
        <route edges="705674505#0 705674505#1 -705674505#1 -705674505#0 36257667#2 36257667#3 36257667#4 36257667#5 36257667#6 36257667#7 36257667#8 36257667#9 36257667#10 36257667#11 36257667#12 36257667#13 36257667#14 36257667#15 36257667#17 464465205#2 464465205#3 464465205#4 1354145735 1354145734#0 1354145734#1 1354145734#2 38522161#1 328349209#0 328349209#1 328349209#4 328349209#6 328349209#7 328349209#8 328349209#9 328349209#11 -484510040#17 -484510040#15 -484510040#14 -484510040#13 -484510040#12 -484510040#11 -484510040#9 -484510040#8 -484510040#6 -484510040#4 -484510040#2 -484510040#1 -484510040#0 484510040#0"/>
    </vehicle>
    <vehicle id="45" depart="162.00">
        <route edges="-1103060077 -169711263#0 492441116#10 492441116#11 492441116#12 169711262#0 169711262#1 169711262#3 169711262#4 169711262#5 169711262#6 169711262#7 169711262#9 -323639494#1 157571649#1 157571649#2 157571649#3 26283801#3"/>
    </vehicle>
    <vehicle id="46" depart="165.60">
        <route edges="188444433#1 188444433#2 188444433#3 -188444433#3 -188444433#2 -188444433#1 -26284129#8 -26284129#7 -26284129#6 -26284129#5 -26284129#4 -26284129#3 -26284129#0 638541497#20 638541497#21 638541497#22 638541497#23 492441116#1 492441116#2 492441116#4 492441116#5 492441116#6 492441116#7 492441116#8 492441116#9 492441116#10 492441116#11 492441116#12 169711262#0 169711262#1 169711262#3 169711262#4 132907557#0"/>
    </vehicle>
    <vehicle id="47" depart="169.20">
        <route edges="-26284129#4 -26284129#3 -26284129#0 638541497#20 638541497#21 638541497#22 638541497#23 492441116#1 492441116#2 492441116#4 492441116#5 492441116#6 492441116#7 492441116#8 492441116#9 492441116#10 492441116#11 492441116#12 169711262#0 169711262#1 169711262#3 169711262#4 169711262#5 169711262#6 169711262#7 169711262#9"/>
    </vehicle>
    <vehicle id="48" depart="172.80">
        <route edges="-132907562#1 -132907562#0 -492441116#6 -169711281#1 -169711281#0 -49687940#3 -49687940#2 1058623187#4 1058623187#5 464465205#0 464465205#2 464465205#3 464465205#4 1354145735 1092308701#1 -331497720#1 -331497720#0 -217536616#1 -217536616#0 49685141#1 213042787#0 213042787#1 213042787#2 213042787#3 1103089070"/>
    </vehicle>
    <vehicle id="49" depart="176.40">
        <route edges="1103060084 -169711262#5 132907557#0 132907557#1 132907557#2 -132907563#2 -132907563#1 -132907563#0 36257667#7 36257667#8 36257667#9 36257667#10 36257667#11 36257667#12 36257667#13 36257667#14 36257667#15 36257667#17 464465205#2 464465205#3 464465205#4 1354145735 1354145734#0 1354145734#1 1354145734#2 1259587204#1 157571651#0 638541497#1 638541497#3 638541497#4 638541497#5 638541497#6 638541497#7"/>
    </vehicle>
    <vehicle id="50" depart="180.00">
        <route edges="484510040#16 796846477 36257667#0 36257667#1 36257667#2 36257667#3 36257667#4 36257667#5 36257667#6 36257667#7 36257667#8 36257667#9 36257667#10 36257667#11 36257667#12 36257667#13 36257667#14 36257667#15 36257667#17 26284129#0 26284129#3 26284129#4 26284129#5 26284129#6 26284129#7 26284129#8 37110889#0 37110889#1 37110889#2 -37110887#14 -37110887#13 -37110887#11 -37110887#10 -37110887#9 -37110887#7 -37110887#6"/>
    </vehicle>
    <vehicle id="51" depart="183.60">
        <route edges="49687940#10 -37106535#1 -37106535#0 36257667#9 36257667#10 36257667#11 36257667#12 36257667#13 36257667#14 36257667#15 36257667#17 464465205#2 464465205#3 464465205#4 1354145735 1354145734#0 1354145734#1 1354145734#2 38522161#1 328349209#0 328349209#1 328349209#4 328349209#6 328349209#7 328349209#8 328349209#9 328349209#11 -484510040#17 -484510040#15 -484510040#14 -484510040#13 -484510040#12 -484510040#11 -484510040#9 -484510040#8 -484510040#6 -484510040#4 -484510040#2 484510040#2"/>
    </vehicle>
    <vehicle id="52" depart="187.20">
        <route edges="-37106535#2 37106535#2 37106535#3 492441116#10 492441116#11 492441116#12 169711262#0 169711262#1 169711262#3 169711262#4 169711262#5 169711262#6"/>
    </vehicle>
    <vehicle id="53" depart="190.80">
        <route edges="169709296 169709317#4 169709320#2 169709320#3 36257667#8 37106535#0 37106535#1 37106535#2 37106535#3 -492441116#9 -492441116#8 491106117#2 491106117#3 491106117#4 -169711272#1"/>
    </vehicle>
    <vehicle id="54" depart="194.40">
        <route edges="328349209#6 328349209#7 328349209#8 328349209#9 328349209#11 796846477 36257667#0 36257667#1 36257667#2 36257667#3 36257667#4 36257667#5 36257667#6 132907563#0 132907563#1 132907563#2 -132907557#2 132907557#2"/>
    </vehicle>
    <vehicle id="55" depart="198.00">
        <route edges="342001778#2 342001778#3 342001778#5 26283801#1 26283801#3 323639494#1 1312070497 -169711262#7 -169711262#6 -169711262#5 132907557#0 132907557#1 132907557#2 -132907563#2 -132907563#1 -132907563#0 36257667#7 36257667#8 36257667#9 36257667#10 36257667#11 36257667#12 36257667#13 36257667#14 36257667#15 36257667#17 464465205#2 464465205#3 464465205#4 1354145735 1354145734#0 1354145734#1 1354145734#2 38522161#1 328349209#0 328349209#1 328349209#4 328349209#6 328349209#7 328349209#8 328349209#9 328349209#11 -484510040#17 -484510040#15 -484510040#14 -484510040#13 -484510040#12 -484510040#11 -484510040#9 -484510040#8 -484510040#6 -484510040#4 -484510040#2 603115724#1 603115724#2 727741259 131388427#3 131388427#4 131388427#5 131388427#6 131388427#7"/>
    </vehicle>
    <vehicle id="56" depart="201.60">
        <route edges="-1053381286#0 -1093123616#1 484510040#16 796846477 36257667#0 36257667#1 36257667#2 36257667#3 36257667#4 36257667#5 36257667#6 36257667#7 36257667#8 36257667#9 36257667#10 36257667#11 36257667#12 36257667#13 36257667#14 36257667#15 36257667#17 26284129#0 26284129#3 26284129#4 26284129#5 26284129#6 26284129#7 26284129#8 37110889#0 37110889#1 37110889#2 -37110887#14 -37110887#13 -37110887#11 -49685138"/>
    </vehicle>
    <vehicle id="57" depart="205.20">
        <route edges="-1103060083 169711279#1 -132907563#3 -132907563#2 -132907563#1 -132907563#0 36257667#7 36257667#8 36257667#9 36257667#10 36257667#11 36257667#12 36257667#13 36257667#14 36257667#15 36257667#17 464465205#2 464465205#3 464465205#4 1354145735 1354145734#0 1354145734#1 1354145734#2 1259587204#1 157571651#0 638541497#1"/>
    </vehicle>
    <vehicle id="58" depart="208.80">
        <route edges="484510040#4 484510040#6 484510040#8 484510040#9 484510040#11 484510040#12 484510040#13 484510040#14 484510040#15 484510040#16 796846477 36257667#0 36257667#1 36257667#2 36257667#3 36257667#4 36257667#5 36257667#6 36257667#7 36257667#8 36257667#9 36257667#10 36257667#11 36257667#12 36257667#13 36257667#14 36257667#15 36257667#17 26284129#0 26284129#3 26284129#4 26284129#5 26284129#6 26284129#7 26284129#8 37110889#0"/>
    </vehicle>
    <vehicle id="59" depart="212.40">
        <route edges="-37110887#4 -95857804#6 -95857804#5 -37110904#2 -37110904#1 -37110904#0 1103089069 213042783#1 213042787#3 -1167882452"/>
    </vehicle>
    <vehicle id="60" depart="216.00">
        <route edges="484510040#4 484510040#6 484510040#8 484510040#9 484510040#11 484510040#12 484510040#13 484510040#14 484510040#15 484510040#16 796846477 36257667#0 36257667#1 36257667#2 36257667#3 36257667#4 36257667#5 36257667#6 36257667#7 36257667#8 36257667#9 36257667#10 36257667#11 36257667#12 36257667#13 36257667#14 36257667#15 36257667#17 638541497#20 638541497#21 638541497#22 638541497#23 638541497#24"/>
    </vehicle>
    <vehicle id="61" depart="219.60">
        <route edges="-1165563351 -213042766#0 217536616#0 217536616#1 331497720#0 331497720#1 1092308702#0 1354145734#0 1354145734#1 1354145734#2 1259587204#1 157571651#0 763183691#1 763183691#2 1112419802#0 1112419802#1 1112419802#2 1112419802#4 1112419801#1 1112419801#2 1112419801#3 1112419801#4 638541495#1 -112028497#1 -112028497#0 112028497#0 112028497#1"/>
    </vehicle>
    <vehicle id="62" depart="223.20">
        <route edges="-112028496#1 112028496#1 112028496#2 112028496#3 112028496#4 112028496#5 112028496#6 36853688#10 638541493#1 763183692 1259587203#1 328349209#0 328349209#1 328349209#4 328349209#6 328349209#7 328349209#8 328349209#9"/>
    </vehicle>
    <vehicle id="63" depart="226.80">
        <route edges="328349209#9 328349209#11 796846477 36257667#0 36257667#1 36257667#2 169709329#0 -169709329#0"/>
    </vehicle>
    <vehicle id="64" depart="230.40">
        <route edges="1103089069 -1103089069 -49685141#2 -49685141#1 217536616#0 217536616#1 331497720#0 331497720#1 1092308702#0 1354145734#0 1354145734#1 1354145734#2 38522161#1 328349209#0 328349209#1 328349209#4 328349209#6 328349209#7 328349209#8 328349209#9 328349209#11 796846477 36257667#0 36257667#1 36257667#2 36257667#3 36257667#4 36257667#5 36257667#6 132907563#0 132907563#1"/>
    </vehicle>
    <vehicle id="65" depart="234.00">
        <route edges="-26284129#3 -26284129#0 464465205#2 464465205#3 464465205#4 1354145735 1354145734#0 1354145734#1 1354145734#2 38522161#1 328349209#0 328349209#1 328349209#4 328349209#6 328349209#7 328349209#8 328349209#9 328349209#11 -484510040#17 -484510040#15 -484510040#14 -484510040#13 -484510040#12 -484510040#11 -484510040#9 -484510040#8 -484510040#6 -484510040#4 484510040#4"/>
    </vehicle>
    <vehicle id="66" depart="237.60">
        <route edges="-95857804#6 95857804#6 37110887#4 37110887#5 37110887#6 37110887#7 37110887#9 37110887#10 37110887#11 37110887#13 37110887#14 -37110889#2 -37110889#1 -37110889#0 -26284129#8 -26284129#7 -26284129#6 -26284129#5 -26284129#4 -26284129#3 -26284129#0 638541497#20 638541497#21 553250634#1 -217536625#1"/>
    </vehicle>
    <vehicle id="67" depart="241.20">
        <route edges="1312070497 -169711262#7 -169711262#6 -169711262#5 132907557#0 132907557#1 132907557#2 -132907563#2 -132907563#1 -132907563#0 36257667#7 36257667#8 36257667#9 36257667#10 36257667#11 36257667#12 36257667#13 36257667#14 36257667#15 36257667#17 26284129#0 26284129#3 26284129#4 26284129#5 26284129#6 26284129#7 26284129#8"/>
    </vehicle>
    <vehicle id="68" depart="244.80">
        <route edges="-169711281#0 49687940#4 491106117#0 491106117#1 492441116#8 492441116#9 492441116#10 -492441116#10"/>
    </vehicle>
    <vehicle id="69" depart="248.40">
        <route edges="95857804#4 37110904#4 37110887#6 37110887#7 37110887#9 37110887#10 37110887#11 37110887#13 37110887#14 -37110889#2 -37110889#1 -37110889#0 -26284129#8 -26284129#7 -26284129#6 -26284129#5 -26284129#4 -26284129#3 -26284129#0 638541497#20 638541497#21 638541497#22 638541497#23 492441116#1 492441116#2 492441116#4 492441116#5 492441116#6 492441116#7 492441116#8 492441116#9 492441116#10 492441116#11 169711276#0"/>
    </vehicle>
    <vehicle id="70" depart="252.00">
        <route edges="1058623188#0 1058623188#1 -1058623188#1 -1058623188#0 464465205#0 464465205#2 464465205#3 464465205#4 1354145735 1354145734#0 1354145734#1 1354145734#2 1259587204#1 157571651#0 132782110#1 1148421491#0 1148421491#1 130121747#0 130121747#1 130121747#2 130121747#3"/>
    </vehicle>
    <vehicle id="71" depart="255.60">
        <route edges="-132907563#5 -132907563#4 -132907563#3 -132907563#2 -132907563#1 -132907563#0 36257667#7 36257667#8 36257667#9 36257667#10 36257667#11 36257667#12 36257667#13 36257667#14 36257667#15 36257667#17 26284129#0 26284129#3 26284129#4 26284129#5 26284129#6 26284129#7 26284129#8 -26284129#8"/>
    </vehicle>
    <vehicle id="72" depart="259.20">
        <route edges="-484510040#15 -484510040#14 -484510040#13 -484510040#12 484510040#12 484510040#13 484510040#14 484510040#15 484510040#16 796846477 36257667#0 36257667#1 36257667#2 36257667#3 36257667#4 36257667#5 36257667#6 36257667#7 -169709320#3 -169709320#2 -1103062099#1 1103062100 -169709291#0 169709291#0"/>
    </vehicle>
    <vehicle id="73" depart="262.80">
        <route edges="-213042787#2 -213042787#1 -213042787#0 -49685141#1 217536616#0 217536616#1 -128515257#2 -128515257#1 -128515257#0 -37110889#2 -37110889#1 -37110889#0 -26284129#8 -26284129#7 -26284129#6 -26284129#5 -26284129#4"/>
    </vehicle>
    <vehicle id="74" depart="266.40">
        <route edges="-112028496#3 -112028496#2 -112028496#1 112028496#1 112028496#2 112028496#3 112028496#4 112028496#5 112028496#6 36853688#10 638541493#1 763183692 638541497#1 638541497#3 638541497#4 638541497#5 638541497#6 638541497#7 638541497#8 638541497#9 638541497#10 638541497#11 169709320#0 169709337#0"/>
    </vehicle>
    <vehicle id="75" depart="270.00">
        <route edges="-213042787#1 -213042787#0 -49685141#1 217536616#0 217536616#1 -128515257#2 -128515257#1 -128515257#0 -37110889#2 -37110889#1 -37110889#0 -26284129#8 -26284129#7 -26284129#6 -26284129#5 -26284129#4 -26284129#3 -26284129#0 638541497#20 638541497#21 1058623187#4 1058623187#5 1058623188#0 1058623188#1 1058623188#2 26284183#1 26284183#2 49687766"/>
    </vehicle>
    <vehicle id="76" depart="273.60">
        <route edges="437169586#0 -437169586#0 1058623187#1 1058623187#2 49687940#2 49687940#3 49687940#4 491106117#0 491106117#1 492441116#8 492441116#9 492441116#10 -132907563#5 -132907563#4 -132907563#3 -132907557#2"/>
    </vehicle>
    <vehicle id="77" depart="277.20">
        <route edges="-213042787#9 -213042787#8 -213042787#7 -213042787#6 -213042787#5 -213042787#3 -213042787#2 -213042787#1 -213042787#0 -49685141#1 217536616#0 217536616#1 -128515257#2 -128515257#1 -128515257#0 -37110889#2 -37110889#1 -37110889#0 188444433#1"/>
    </vehicle>
    <vehicle id="78" depart="280.80">
        <route edges="-213042766#0 217536616#0 217536616#1 331497720#0 331497720#1 1092308702#0 1354145734#0 1354145734#1 1354145734#2 1259587204#1 157571651#0 638541497#1 638541497#3 638541497#4 638541497#5 638541497#6 638541497#7 638541497#8 638541497#9 638541497#10 638541497#11 169709320#0 169709320#1 169709320#2 -169709329#4"/>
    </vehicle>
    <vehicle id="79" depart="284.40">