<?xml version="1.0" encoding="UTF-8"?>

<!-- generated on 2025-11-11 19:10:31.105554 by randomTrips.py v1_24_0+0000-b72eb3fabc8
<configuration>
    <net-file value="osm.net.xml.gz"/>
    <output-trip-file value="background.rou.xml"/>
    <begin value="28800.0"/>
    <end value="72000.0"/>
    <period value="3.6"/>
</configuration>
-->

<routes xmlns:xsi="http://www.w3.org/2001/XMLSchema-instance" xsi:noNamespaceSchemaLocation="http://sumo.dlr.de/xsd/routes_file.xsd">
    <trip id="0" depart="28800.00" from="169709329#5" to="-1103062099#1"/>
    <trip id="1" depart="28803.60" from="-26284183#2" to="-26284129#7"/>
    <trip id="2" depart="28807.20" from="26284129#7" to="213042766#5"/>
    <trip id="3" depart="28810.80" from="491106117#3" to="-132907566#1"/>
    <trip id="4" depart="28814.40" from="-95857804#5" to="-1103062103"/>
    <trip id="5" depart="28818.00" from="-213042766#4" to="1227985795"/>
    <trip id="6" depart="28821.60" from="-1103062098#1" to="-217536593"/>
    <trip id="7" depart="28825.20" from="169711262#3" to="132907562#1"/>
    <trip id="8" depart="28828.80" from="-213042766#6" to="169709291#0"/>
    <trip id="9" depart="28832.40" from="36853688#1" to="-1093123616#1"/>
    <trip id="10" depart="28836.00" from="36257667#9" to="213087089"/>
    <trip id="11" depart="28839.60" from="-484510040#17" to="-169711276#0"/>
    <trip id="12" depart="28843.20" from="638541497#8" to="-553250634#1"/>
    <trip id="13" depart="28846.80" from="-1227950011" to="-147545754#1"/>
    <trip id="14" depart="28850.40" from="37111253#1" to="169709308#1"/>
    <trip id="15" depart="28854.00" from="366994282" to="26284129#8"/>
    <trip id="16" depart="28857.60" from="-49687940#3" to="132907563#3"/>
    <trip id="17" depart="28861.20" from="37110887#14" to="169709327#1"/>
    <trip id="18" depart="28864.80" from="464465205#0" to="147545754#2"/>
    <trip id="19" depart="28868.40" from="213042787#7" to="-112028496#1"/>
    <trip id="20" depart="28872.00" from="-213042787#0" to="-484510040#14"/>
    <trip id="21" depart="28875.60" from="-1126178462" to="-328837813#0"/>
    <trip id="22" depart="28879.20" from="-49685138" to="-217536623#0"/>
    <trip id="23" depart="28882.80" from="-26284129#5" to="638541497#15"/>
    <trip id="24" depart="28886.40" from="169711262#1" to="169709317#2"/>
    <trip id="25" depart="28890.00" from="-169709329#3" to="26284129#7"/>
    <trip id="26" depart="28893.60" from="796846477" to="169711262#7"/>
    <trip id="27" depart="28897.20" from="132907557#2" to="213042786#1"/>
    <trip id="28" depart="28900.80" from="37110904#1" to="346533014#0"/>
    <trip id="29" depart="28904.40" from="-213042787#1" to="-1103062105"/>
    <trip id="30" depart="28908.00" from="-37110889#1" to="-37110889#1"/>
    <trip id="31" depart="28911.60" from="-188444433#1" to="638541497#21"/>
    <trip id="32" depart="28915.20" from="484510040#16" to="-492441116#12"/>
    <trip id="33" depart="28918.80" from="169711262#9" to="1101271053"/>
    <trip id="34" depart="28922.40" from="-26284129#3" to="-37106518#1"/>
    <trip id="35" depart="28926.00" from="132907562#0" to="-37110887#6"/>
    <trip id="36" depart="28929.60" from="1447075496" to="492441116#8"/>
    <trip id="37" depart="28933.20" from="-688413055" to="-26284129#3"/>
    <trip id="38" depart="28936.80" from="95857804#5" to="1259587204#1"/>
    <trip id="39" depart="28940.40" from="-1199463384" to="-112028496#2"/>
    <trip id="40" depart="28944.00" from="-132907559#1" to="169709329#6"/>
    <trip id="41" depart="28947.60" from="36257667#13" to="1103062104#0"/>
    <trip id="42" depart="28951.20" from="-1104891073#0" to="1058623187#4"/>
    <trip id="43" depart="28954.80" from="95857804#4" to="131388427#6"/>
    <trip id="44" depart="28958.40" from="705674505#0" to="484510040#0"/>
    <trip id="45" depart="28962.00" from="-1103060077" to="26283801#3"/>
    <trip id="46" depart="28965.60" from="188444433#1" to="132907557#0"/>
    <trip id="47" depart="28969.20" from="-26284129#4" to="169711262#9"/>
    <trip id="48" depart="28972.80" from="-132907562#1" to="1103089070"/>
    <trip id="49" depart="28976.40" from="1103060084" to="638541497#7"/>
    <trip id="50" depart="28980.00" from="484510040#16" to="-37110887#6"/>
    <trip id="51" depart="28983.60" from="49687940#10" to="484510040#2"/>
    <trip id="52" depart="28987.20" from="-37106535#2" to="169711262#6"/>
    <trip id="53" depart="28990.80" from="169709296" to="-169711272#1"/>
    <trip id="54" depart="28994.40" from="328349209#6" to="132907557#2"/>
    <trip id="55" depart="28998.00" from="342001778#2" to="131388427#7"/>
    <trip id="56" depart="29001.60" from="-1053381286#0" to="-49685138"/>
    <trip id="57" depart="29005.20" from="-1103060083" to="638541497#1"/>
    <trip id="58" depart="29008.80" from="484510040#4" to="37110889#0"/>
    <trip id="59" depart="29012.40" from="-37110887#4" to="-1167882452"/>
    <trip id="60" depart="29016.00" from="484510040#4" to="638541497#24"/>
    <trip id="61" depart="29019.60" from="-1165563351" to="112028497#1"/>
    <trip id="62" depart="29023.20" from="-112028496#1" to="328349209#9"/>
    <trip id="63" depart="29026.80" from="328349209#9" to="-169709329#0"/>
    <trip id="64" depart="29030.40" from="1103089069" to="132907563#1"/>
    <trip id="65" depart="29034.00" from="-26284129#3" to="484510040#4"/>
    <trip id="66" depart="29037.60" from="-95857804#6" to="-217536625#1"/>
    <trip id="67" depart="29041.20" from="1312070497" to="26284129#8"/>
    <trip id="68" depart="29044.80" from="-169711281#0" to="-492441116#10"/>
    <trip id="69" depart="29048.40" from="95857804#4" to="169711276#0"/>
    <trip id="70" depart="29052.00" from="1058623188#0" to="130121747#3"/>
    <trip id="71" depart="29055.60" from="-132907563#5" to="-26284129#8"/>
    <trip id="72" depart="29059.20" from="-484510040#15" to="169709291#0"/>
    <trip id="73" depart="29062.80" from="-213042787#2" to="-26284129#4"/>
    <trip id="74" depart="29066.40" from="-112028496#3" to="169709337#0"/>
    <trip id="75" depart="29070.00" from="-213042787#1" to="49687766"/>
    <trip id="76" depart="29073.60" from="437169586#0" to="-132907557#2"/>
    <trip id="77" depart="29077.20" from="-213042787#9" to="188444433#1"/>
    <trip id="78" depart="29080.80" from="-213042766#0" to="-169709329#4"/>
    <trip id="79" depart="29084.40" from="638541497#12" to="138980166#1"/>
    <trip id="80" depart="29088.00" from="1103080112" to="36257667#12"/>
    <trip id="81" depart="29091.60" from="366994282" to="-213042787#5"/>
    <trip id="82" depart="29095.20" from="-128515257#2" to="1103089067"/>
    <trip id="83" depart="29098.80" from="-95857807" to="1112419801#1"/>
    <trip id="84" depart="29102.40" from="26283801#3" to="213042766#2"/>
    <trip id="85" depart="29106.00" from="796846456#2" to="-169709291#1"/>
    <trip id="86" depart="29109.60" from="-688413056#1" to="-603115724#2"/>
    <trip id="87" depart="29113.20" from="437169586#1" to="-37106535#0"/>
    <trip id="88" depart="29116.80" from="-95857804#5" to="-437169584#1"/>
    <trip id="89" depart="29120.40" from="1092308702#0" to="484510040#0"/>
    <trip id="90" depart="29124.00" from="131388427#8" to="-112028496#5"/>
    <trip id="91" depart="29127.60" from="995158260" to="37110904#1"/>
    <trip id="92" depart="29131.20" from="688413056#2" to="638541493#1"/>
    <trip id="93" depart="29134.80" from="38522161#1" to="-169711285#1"/>
    <trip id="94" depart="29138.40" from="1112419799#2" to="-217536626#0"/>
    <trip id="95" depart="29142.00" from="-688413056#0" to="-1167882452"/>
    <trip id="96" depart="29145.60" from="-49687940#3" to="796846472#0"/>
    <trip id="97" depart="29149.20" from="-26284129#3" to="36257667#11"/>
    <trip id="98" depart="29152.80" from="1103062094#0" to="1103062104#1"/>
    <trip id="99" depart="29156.40" from="638541497#8" to="95857804#6"/>
    <trip id="100" depart="29160.00" from="132907557#1" to="217536626#2"/>
    <trip id="101" depart="29163.60" from="-169709317#0" to="-484510040#8"/>
    <trip id="102" depart="29167.20" from="688413056#2" to="147545792"/>
    <trip id="103" depart="29170.80" from="131388427#1" to="327550407#9"/>
    <trip id="104" depart="29174.40" from="-1103089076" to="157571649#4"/>
    <trip id="105" depart="29178.00" from="-169709317#2" to="688353426#0"/>
    <trip id="106" depart="29181.60" from="-1126178462" to="-213042787#0"/>
    <trip id="107" depart="29185.20" from="157571649#2" to="213042766#3"/>
    <trip id="108" depart="29188.80" from="-213042787#7" to="-169709320#0"/>
    <trip id="109" depart="29192.40" from="491106117#2" to="-37106518#0"/>
    <trip id="110" depart="29196.00" from="157571649#1" to="169709327#2"/>
    <trip id="111" depart="29199.60" from="-95857804#3" to="157571649#4"/>
    <trip id="112" depart="29203.20" from="1167882452" to="638541497#13"/>
    <trip id="113" depart="29206.80" from="-169711283" to="217536626#0"/>
    <trip id="114" depart="29210.40" from="-213087089" to="1101271053"/>
    <trip id="115" depart="29214.00" from="-37110889#2" to="328349209#0"/>
    <trip id="116" depart="29217.60" from="95857804#6" to="95857804#6"/>
    <trip id="117" depart="29221.20" from="-112028496#4" to="-217536625#2"/>
    <trip id="118" depart="29224.80" from="-26284129#3" to="638541497#12"/>
    <trip id="119" depart="29228.40" from="484510040#8" to="489808264#1"/>
    <trip id="120" depart="29232.00" from="-492441116#9" to="-169711277"/>
    <trip id="121" depart="29235.60" from="37110887#6" to="217536594"/>
    <trip id="122" depart="29239.20" from="169709300#1" to="796846477"/>
    <trip id="123" depart="29242.80" from="169711262#7" to="-1093708745"/>
    <trip id="124" depart="29246.40" from="169711276#0" to="638541497#17"/>
    <trip id="125" depart="29250.00" from="-1447075497#1" to="-169709317#1"/>
    <trip id="126" depart="29253.60" from="-132907557#2" to="132907563#4"/>
    <trip id="127" depart="29257.20" from="-26284183#0" to="169709308#2"/>
    <trip id="128" depart="29260.80" from="217536623#1" to="-217536616#0"/>
    <trip id="129" depart="29264.40" from="169709329#0" to="-37110887#7"/>
    <trip id="130" depart="29268.00" from="1112419800#0" to="49687766"/>
    <trip id="131" depart="29271.60" from="37111253#0" to="-1447075497#0"/>
    <trip id="132" depart="29275.20" from="-95857807" to="-37111253#1"/>
    <trip id="133" depart="29278.80" from="-1058623188#1" to="342001778#1"/>
    <trip id="134" depart="29282.40" from="169709329#3" to="-37110887#5"/>
    <trip id="135" depart="29286.00" from="263812623#0" to="132907563#3"/>
    <trip id="136" depart="29289.60" from="1043378210#1" to="-1103060074"/>
    <trip id="137" depart="29293.20" from="-112028496#6" to="491106117#2"/>
    <trip id="138" depart="29296.80" from="492441116#7" to="132907562#2"/>
    <trip id="139" depart="29300.40" from="37110887#6" to="157571649#3"/>
    <trip id="140" depart="29304.00" from="-169709302#0" to="-169709327#2"/>
    <trip id="141" depart="29307.60" from="-37110887#4" to="492441116#9"/>
    <trip id="142" depart="29311.20" from="36257667#17" to="484510040#0"/>
    <trip id="143" depart="29314.80" from="492441116#2" to="-217536623#1"/>
    <trip id="144" depart="29318.40" from="-217536616#0" to="-169709293#2"/>
    <trip id="145" depart="29322.00" from="342001778#3" to="491106117#3"/>
    <trip id="146" depart="29325.60" from="-705674505#0" to="169709329#0"/>
    <trip id="147" depart="29329.20" from="-169709317#0" to="638541497#1"/>
    <trip id="148" depart="29332.80" from="464465205#3" to="727741257"/>
    <trip id="149" depart="29336.40" from="36853688#10" to="491106117#1"/>
    <trip id="150" depart="29340.00" from="-1103062098#0" to="311366225"/>
    <trip id="151" depart="29343.60" from="-484510040#1" to="638541497#10"/>
    <trip id="152" depart="29347.20" from="36257667#6" to="484510040#12"/>
    <trip id="153" depart="29350.80" from="36853688#10" to="-37110889#0"/>
    <trip id="154" depart="29354.40" from="36257667#1" to="-169709302#1"/>
    <trip id="155" depart="29358.00" from="484510040#13" to="464465205#3"/>
    <trip id="156" depart="29361.60" from="-213042783#0" to="37106535#3"/>
    <trip id="157" depart="29365.20" from="1103062098#0" to="-491106117#1"/>
    <trip id="158" depart="29368.80" from="36257667#15" to="-26284183#1"/>
    <trip id="159" depart="29372.40" from="-1103062097" to="-213042787#7"/>
    <trip id="160" depart="29376.00" from="-437169586#0" to="484510040#12"/>
    <trip id="161" depart="29379.60" from="688413056#0" to="-437169584#1"/>
    <trip id="162" depart="29383.20" from="169709329#7" to="1103060078"/>
    <trip id="163" depart="29386.80" from="763183692" to="132907555"/>
    <trip id="164" depart="29390.40" from="638541497#15" to="-169709317#1"/>
    <trip id="165" depart="29394.00" from="688413056#3" to="-213042766#5"/>
    <trip id="166" depart="29397.60" from="688353426#0" to="-37110887#9"/>
    <trip id="167" depart="29401.20" from="-132907559#0" to="1103089070"/>
    <trip id="168" depart="29404.80" from="26283801#3" to="-492441116#11"/>
    <trip id="169" depart="29408.40" from="169709293#1" to="128515257#1"/>
    <trip id="170" depart="29412.00" from="-603115724#1" to="147545754#1"/>
    <trip id="171" depart="29415.60" from="-217536623#1" to="217536619#1"/>
    <trip id="172" depart="29419.20" from="-1058623188#0" to="638541493#1"/>
    <trip id="173" depart="29422.80" from="263812623#1" to="188444433#3"/>
    <trip id="174" depart="29426.40" from="-492441116#5" to="-132907557#2"/>
    <trip id="175" depart="29430.00" from="169711276#1" to="-49687940#2"/>
    <trip id="176" depart="29433.60" from="-37110889#0" to="38685277#2"/>
    <trip id="177" depart="29437.20" from="217536625#2" to="-48557534"/>
    <trip id="178" depart="29440.80" from="-37110887#5" to="1103062095"/>
    <trip id="179" depart="29444.40" from="-688413056#1" to="-484510040#6"/>
    <trip id="180" depart="29448.00" from="-1350409192#1" to="1103062103"/>
    <trip id="181" depart="29451.60" from="638541497#16" to="213042766#5"/>
    <trip id="182" depart="29455.20" from="492441116#6" to="169709320#3"/>
    <trip id="183" depart="29458.80" from="-37110887#1" to="132907563#0"/>
    <trip id="184" depart="29462.40" from="-1053381286#0" to="-484510040#12"/>
    <trip id="185" depart="29466.00" from="1053381286#0" to="157571649#1"/>
    <trip id="186" depart="29469.60" from="1092308701#1" to="-217536626#0"/>
    <trip id="187" depart="29473.20" from="1103080112" to="49685139"/>
    <trip id="188" depart="29476.80" from="36257667#17" to="-173435223#0"/>
    <trip id="189" depart="29480.40" from="-1165563351" to="130121747#1"/>
    <trip id="190" depart="29484.00" from="169709327#2" to="-49687940#8"/>
    <trip id="191" depart="29487.60" from="37106518#1" to="327550409#1"/>
    <trip id="192" depart="29491.20" from="169711281#1" to="-26284129#8"/>
    <trip id="193" depart="29494.80" from="-169711279#0" to="-1103062099#0"/>
    <trip id="194" depart="29498.40" from="-217536594" to="1112419802#2"/>
    <trip id="195" depart="29502.00" from="38685277#0" to="-132907559#1"/>
    <trip id="196" depart="29505.60" from="-796846472#0" to="169709329#8"/>
    <trip id="197" depart="29509.20" from="-169711274" to="213042787#9"/>
    <trip id="198" depart="29512.80" from="1112419800#5" to="-369384574#0"/>
    <trip id="199" depart="29516.40" from="-132907557#2" to="1103062105"/>
    <trip id="200" depart="29520.00" from="-169709329#7" to="688351855#0"/>
    <trip id="201" depart="29523.60" from="112028502" to="-112028496#4"/>
    <trip id="202" depart="29527.20" from="-217536616#0" to="38685277#3"/>
    <trip id="203" depart="29530.80" from="1103062094#1" to="366994282"/>
    <trip id="204" depart="29534.40" from="157571649#2" to="638541497#4"/>
    <trip id="205" depart="29538.00" from="491106117#3" to="169709320#0"/>
    <trip id="206" depart="29541.60" from="217536625#1" to="1227950011"/>
    <trip id="207" depart="29545.20" from="37110887#3" to="132907563#0"/>
    <trip id="208" depart="29548.80" from="492441116#12" to="327550407#3"/>
    <trip id="209" depart="29552.40" from="1103080120" to="-37110887#3"/>
    <trip id="210" depart="29556.00" from="-217536611#0" to="169711262#5"/>
    <trip id="211" depart="29559.60" from="169709320#1" to="-37111253#0"/>
    <trip id="212" depart="29563.20" from="-26284129#8" to="-492441116#6"/>
    <trip id="213" depart="29566.80" from="131388427#0" to="-169709337#0"/>
    <trip id="214" depart="29570.40" from="-213042787#2" to="213042787#7"/>
    <trip id="215" depart="29574.00" from="213042787#9" to="-128515257#2"/>
    <trip id="216" depart="29577.60" from="-705674505#1" to="132907559#1"/>
    <trip id="217" depart="29581.20" from="-796846473" to="-217536619#0"/>
    <trip id="218" depart="29584.80" from="-95857804#4" to="49687766"/>
    <trip id="219" depart="29588.40" from="1447075496" to="213042787#8"/>
    <trip id="220" depart="29592.00" from="437169584#0" to="328837821#2"/>
    <trip id="221" depart="29595.60" from="-491106117#1" to="328349209#1"/>
    <trip id="222" depart="29599.20" from="38685277#3" to="638541497#6"/>
    <trip id="223" depart="29602.80" from="-95857804#3" to="327550407#8"/>
    <trip id="224" depart="29606.40" from="131388427#5" to="169709308#1"/>
    <trip id="225" depart="29610.00" from="-213042766#6" to="-26284129#4"/>
    <trip id="226" depart="29613.60" from="1058623187#5" to="-1103062102"/>
    <trip id="227" depart="29617.20" from="-484510040#13" to="213042767"/>
    <trip id="228" depart="29620.80" from="-688413056#3" to="-169711285#0"/>
    <trip id="229" depart="29624.40" from="1103062100" to="-169709329#0"/>
    <trip id="230" depart="29628.00" from="169709317#1" to="-1103062101"/>
    <trip id="231" depart="29631.60" from="-688351855#0" to="1354145734#2"/>
    <trip id="232" depart="29635.20" from="-1103062098#2" to="169711263#0"/>
    <trip id="233" depart="29638.80" from="-188444433#1" to="-49685141#1"/>
    <trip id="234" depart="29642.40" from="-217536619#1" to="-132907563#3"/>
    <trip id="235" depart="29646.00" from="-1103060083" to="132907557#2"/>
    <trip id="236" depart="29649.60" from="995158260" to="-688413056#1"/>
    <trip id="237" depart="29653.20" from="169711262#4" to="36257667#1"/>
    <trip id="238" depart="29656.80" from="169711262#5" to="328349209#11"/>
    <trip id="239" depart="29660.40" from="638541497#24" to="-217536593"/>
    <trip id="240" depart="29664.00" from="-1103060084" to="-169711272#1"/>
    <trip id="241" depart="29667.60" from="-1350409192#1" to="188444433#2"/>
    <trip id="242" depart="29671.20" from="132907562#2" to="-26284129#0"/>
    <trip id="243" depart="29674.80" from="213042787#2" to="331497720#0"/>
    <trip id="244" depart="29678.40" from="-169709329#0" to="169709317#0"/>
    <trip id="245" depart="29682.00" from="327550407#1" to="-169709317#0"/>
    <trip id="246" depart="29685.60" from="37106535#0" to="688413056#0"/>
    <trip id="247" depart="29689.20" from="-132907559#0" to="-1103062099#1"/>
    <trip id="248" depart="29692.80" from="-37110887#7" to="213042766#5"/>
    <trip id="249" depart="29696.40" from="638541497#8" to="1103060073"/>
    <trip id="250" depart="29700.00" from="217536616#1" to="-132907562#2"/>
    <trip id="251" depart="29703.60" from="213042767" to="169709329#6"/>
    <trip id="252" depart="29707.20" from="-132907551" to="342001778#2"/>
    <trip id="253" depart="29710.80" from="38685277#0" to="169709302#1"/>
    <trip id="254" depart="29714.40" from="-132907563#5" to="796846456#2"/>
    <trip id="255" depart="29718.00" from="346533014#0" to="-688413055"/>
    <trip id="256" depart="29721.60" from="1043378210#1" to="-95857804#5"/>
    <trip id="257" depart="29725.20" from="1112419802#2" to="-688192176"/>
    <trip id="258" depart="29728.80" from="38685277#0" to="37110887#14"/>
    <trip id="259" depart="29732.40" from="-132907557#1" to="688353426#1"/>
    <trip id="260" depart="29736.00" from="169709329#1" to="37110887#7"/>
    <trip id="261" depart="29739.60" from="213042787#9" to="1103089072"/>
    <trip id="262" depart="29743.20" from="26284129#5" to="688413056#0"/>
    <trip id="263" depart="29746.80" from="-26284129#7" to="36853688#8"/>
    <trip id="264" depart="29750.40" from="1058623187#4" to="26284183#1"/>
    <trip id="265" depart="29754.00" from="-26284129#6" to="437169584#1"/>
    <trip id="266" depart="29757.60" from="37110887#3" to="-132907566#1"/>
    <trip id="267" depart="29761.20" from="484510040#9" to="-346533014#2"/>
    <trip id="268" depart="29764.80" from="1103062099#0" to="169709317#4"/>
    <trip id="269" depart="29768.40" from="-49687940#3" to="-1103062102"/>
    <trip id="270" depart="29772.00" from="38685277#1" to="-213042783#1"/>
    <trip id="271" depart="29775.60" from="-188444433#2" to="36257667#8"/>
    <trip id="272" depart="29779.20" from="-484510040#2" to="491106117#0"/>
    <trip id="273" depart="29782.80" from="213042787#3" to="-37111253#1"/>
    <trip id="274" depart="29786.40" from="-1103060074" to="638541497#25"/>
    <trip id="275" depart="29790.00" from="-1165563351" to="26283801#1"/>
    <trip id="276" depart="29793.60" from="1112419800#0" to="328349209#7"/>
    <trip id="277" depart="29797.20" from="213042767" to="169711264"/>
    <trip id="278" depart="29800.80" from="1112419800#3" to="36257667#4"/>
    <trip id="279" depart="29804.40" from="-1227985795" to="-26284129#5"/>
    <trip id="280" depart="29808.00" from="213042783#0" to="-491106117#1"/>
    <trip id="281" depart="29811.60" from="323639494#1" to="-49687940#2"/>
    <trip id="282" depart="29815.20" from="213042787#6" to="-37110904#1"/>
    <trip id="283" depart="29818.80" from="-217536619#0" to="-169709320#1"/>
    <trip id="284" depart="29822.40" from="-169711272#1" to="-169709320#0"/>
    <trip id="285" depart="29826.00" from="-169711262#5" to="-217536626#2"/>
    <trip id="286" depart="29829.60" from="1112419799#1" to="26284129#4"/>
    <trip id="287" depart="29833.20" from="719664029#2" to="131388427#3"/>
    <trip id="288" depart="29836.80" from="-169711274" to="-26284183#1"/>
    <trip id="289" depart="29840.40" from="-169709337#1" to="-1103060084"/>
    <trip id="290" depart="29844.00" from="719664029#0" to="132907563#4"/>
    <trip id="291" depart="29847.60" from="213042787#0" to="-169709327#2"/>
    <trip id="292" depart="29851.20" from="484510040#1" to="1148421491#1"/>
    <trip id="293" depart="29854.80" from="484510040#14" to="1447075497#1"/>
    <trip id="294" depart="29858.40" from="1103062103" to="1103089076"/>
    <trip id="295" depart="29862.00" from="-169711262#4" to="-112028496#5"/>
    <trip id="296" depart="29865.60" from="638541497#16" to="112028496#1"/>
    <trip id="297" depart="29869.20" from="37106535#2" to="1103060078"/>
    <trip id="298" depart="29872.80" from="-112028496#5" to="169709329#8"/>
    <trip id="299" depart="29876.40" from="-1103089073" to="-169711263#0"/>
    <trip id="300" depart="29880.00" from="132907562#1" to="-489808264#1"/>
    <trip id="301" depart="29883.60" from="95857804#3" to="-169709317#4"/>
    <trip id="302" depart="29887.20" from="328349209#8" to="169709310"/>
    <trip id="303" depart="29890.80" from="36257667#12" to="-26284183#0"/>
    <trip id="304" depart="29894.40" from="1092308701#1" to="464465205#4"/>
    <trip id="305" depart="29898.00" from="796846477" to="-491106117#1"/>
    <trip id="306" depart="29901.60" from="169709317#0" to="169709317#2"/>
    <trip id="307" depart="29905.20" from="26284183#2" to="638541497#25"/>
    <trip id="308" depart="29908.80" from="-169711285#2" to="-217536625#1"/>
    <trip id="309" depart="29912.40" from="169711272#1" to="-169711277"/>
    <trip id="310" depart="29916.00" from="-169709329#6" to="-132907562#1"/>
    <trip id="311" depart="29919.60" from="157571649#1" to="-484510040#15"/>
    <trip id="312" depart="29923.20" from="-213042787#3" to="217536616#0"/>
    <trip id="313" depart="29926.80" from="36257667#1" to="169709329#5"/>
    <trip id="314" depart="29930.40" from="169711274" to="638541497#12"/>
    <trip id="315" depart="29934.00" from="-995158260" to="132907562#1"/>
    <trip id="316" depart="29937.60" from="169711262#1" to="49687940#3"/>
    <trip id="317" depart="29941.20" from="37110887#11" to="-132907559#0"/>
    <trip id="318" depart="29944.80" from="-169709327#1" to="-491106117#3"/>
    <trip id="319" depart="29948.40" from="327550407#1" to="1365989905"/>
    <trip id="320" depart="29952.00" from="-346533014#0" to="-169709327#0"/>
    <trip id="321" depart="29955.60" from="213042766#5" to="213087090"/>
    <trip id="322" depart="29959.20" from="638541497#19" to="1182403954"/>
    <trip id="323" depart="29962.80" from="1112419800#5" to="-132907563#2"/>
    <trip id="324" depart="29966.40" from="-1103080111#0" to="1103089068"/>
    <trip id="325" depart="29970.00" from="-37111253#0" to="-37106535#2"/>
    <trip id="326" depart="29973.60" from="-1199463384" to="688353426#1"/>
    <trip id="327" depart="29977.20" from="37110887#7" to="147545754#0"/>
    <trip id="328" depart="29980.80" from="638541497#25" to="995441410"/>
    <trip id="329" depart="29984.40" from="169711281#1" to="-37110889#2"/>
    <trip id="330" depart="29988.00" from="-1103080111#0" to="328349209#6"/>
    <trip id="331" depart="29991.60" from="1103062104#0" to="169711276#1"/>
    <trip id="332" depart="29995.20" from="49687940#4" to="-213042783#1"/>
    <trip id="333" depart="29998.80" from="1447075497#0" to="169711262#1"/>
    <trip id="334" depart="30002.40" from="1112419800#3" to="-1447075496"/>
    <trip id="335" depart="30006.00" from="-489808264#0" to="-49687940#4"/>
    <trip id="336" depart="30009.60" from="169711280" to="464465205#2"/>
    <trip id="337" depart="30013.20" from="-437169586#1" to="213042787#7"/>
    <trip id="338" depart="30016.80" from="-346533014#0" to="638541497#23"/>
    <trip id="339" depart="30020.40" from="36853688#4" to="132907563#1"/>
    <trip id="340" depart="30024.00" from="1103062094#0" to="-492441116#12"/>
    <trip id="341" depart="30027.60" from="-37111253#1" to="705674505#0"/>
    <trip id="342" depart="30031.20" from="-688413056#3" to="130121747#0"/>
    <trip id="343" depart="30034.80" from="796846472#0" to="169711281#0"/>
    <trip id="344" depart="30038.40" from="131388427#2" to="1103062098#1"/>
    <trip id="345" depart="30042.00" from="-169711262#7" to="-796846472#0"/>
    <trip id="346" depart="30045.60" from="328349209#0" to="169709329#5"/>
    <trip id="347" depart="30049.20" from="328349209#11" to="-217536616#0"/>
    <trip id="348" depart="30052.80" from="131388427#7" to="638541495#1"/>
    <trip id="349" depart="30056.40" from="1058623188#0" to="213087089"/>
    <trip id="350" depart="30060.00" from="-132907566#0" to="719664029#1"/>
    <trip id="351" depart="30063.60" from="169709296" to="-331497720#1"/>
    <trip id="352" depart="30067.20" from="-169709317#4" to="132907563#2"/>
    <trip id="353" depart="30070.80" from="132782110#1" to="-1447075497#1"/>
    <trip id="354" depart="30074.40" from="95857804#0" to="49687940#8"/>
    <trip id="355" depart="30078.00" from="1103062098#1" to="-169709317#2"/>
    <trip id="356" depart="30081.60" from="37110887#4" to="1167882452"/>
    <trip id="357" depart="30085.20" from="217536619#1" to="1259587204#1"/>
    <trip id="358" depart="30088.80" from="-26284183#1" to="37110904#0"/>
    <trip id="359" depart="30092.40" from="763183691#2" to="-346533014#2"/>
    <trip id="360" depart="30096.00" from="603115724#2" to="1259587203#1"/>
    <trip id="361" depart="30099.60" from="484510040#6" to="484510040#12"/>
    <trip id="362" depart="30103.20" from="-311366225" to="36257667#17"/>
    <trip id="363" depart="30106.80" from="-796846473" to="638541497#13"/>
    <trip id="364" depart="30110.40" from="1447075497#1" to="995441410"/>
    <trip id="365" depart="30114.00" from="1112419800#1" to="-169711263#0"/>
    <trip id="366" depart="30117.60" from="1312070497" to="-688353426#0"/>
    <trip id="367" depart="30121.20" from="1103062094#1" to="-492441116#8"/>
    <trip id="368" depart="30124.80" from="-169711263#0" to="213087089"/>
    <trip id="369" depart="30128.40" from="132907566#0" to="-328837813#1"/>
    <trip id="370" depart="30132.00" from="311366226#0" to="217536611#1"/>
    <trip id="371" depart="30135.60" from="36853688#10" to="1058623188#2"/>
    <trip id="372" depart="30139.20" from="169711276#1" to="37110887#11"/>
    <trip id="373" depart="30142.80" from="763183692" to="1165372111"/>
    <trip id="374" depart="30146.40" from="-1103062104#1" to="1199463384"/>
    <trip id="375" depart="30150.00" from="147545754#2" to="484510040#16"/>
    <trip id="376" depart="30153.60" from="484510040#15" to="1103089076"/>
    <trip id="377" depart="30157.20" from="217536626#0" to="1103062096"/>
    <trip id="378" depart="30160.80" from="169711262#7" to="-169711274"/>
    <trip id="379" depart="30164.40" from="1103062103" to="688413056#3"/>
    <trip id="380" depart="30168.00" from="-484510040#15" to="213042787#6"/>
    <trip id="381" depart="30171.60" from="169711262#3" to="437169584#2"/>
    <trip id="382" depart="30175.20" from="38685277#2" to="464465205#4"/>
    <trip id="383" depart="30178.80" from="-49687940#4" to="-492441116#4"/>
    <trip id="384" depart="30182.40" from="217536625#1" to="328349209#8"/>
    <trip id="385" depart="30186.00" from="484510040#13" to="-1103080120"/>
    <trip id="386" depart="30189.60" from="603115724#1" to="95857807"/>
    <trip id="387" depart="30193.20" from="327550407#0" to="1103089070"/>
    <trip id="388" depart="30196.80" from="-1313675936#1" to="169711262#1"/>
    <trip id="389" depart="30200.40" from="484510040#13" to="1103089080#1"/>
    <trip id="390" depart="30204.00" from="213042783#1" to="49685141#2"/>
    <trip id="391" depart="30207.60" from="-1103089066" to="36257667#6"/>
    <trip id="392" depart="30211.20" from="-37106518#0" to="1043378210#1"/>