<?xml version="1.0" encoding="UTF-8"?>

<!-- generated on 2025-11-11 20:02:50 by Eclipse SUMO netedit Version 1.24.0
<neteditConfiguration xmlns:xsi="http://www.w3.org/2001/XMLSchema-instance" xsi:noNamespaceSchemaLocation="http://sumo.dlr.de/xsd/neteditConfiguration.xsd">

    <input>
        <sumo-net-file value="C:\Users\prate\AppData\Local\Temp\SUMO_Trinity_Traffic_sim\osm.net.xml.gz"/>
    </input>

    <output>
        <output-file value="C:\Users\prate\AppData\Local\Temp\SUMO_Trinity_Traffic_sim\osm.net.xml.gz"/>
        <output.street-names value="true"/>
    </output>

    <processing>
        <geometry.min-radius.fix.railways value="false"/>
        <geometry.avoid-overlap value="false"/>
        <geometry.max-grade.fix value="false"/>
        <offset.disable-normalization value="true"/>
        <lefthand value="1"/>
    </processing>

    <junctions>
        <no-turnarounds value="true"/>
        <junctions.corner-detail value="5"/>
        <junctions.limit-turn-speed value="5.50"/>
        <rectangular-lane-cut value="0"/>
    </junctions>

    <pedestrian>
        <walkingareas value="0"/>
    </pedestrian>

</neteditConfiguration>
-->

<net version="1.20" junctionCornerDetail="5" lefthand="true" limitTurnSpeed="5.50" avoidOverlap="0" xmlns:xsi="http://www.w3.org/2001/XMLSchema-instance" xsi:noNamespaceSchemaLocation="http://sumo.dlr.de/xsd/net_file.xsd">

    <location netOffset="-8640104.00,-1456011.18" convBoundary="0.00,0.00,1333.86,1255.05" origBoundary="77.615375,12.967427,77.627357,12.978414" projParameter="+proj=merc +a=6378137 +b=6378137 +lat_ts=0.0 +lon_0=0.0 +x_0=0.0 +y_0=0 +k=1.0 +units=m +nadgrids=@null +wktext +no_defs"/>

    <type id="highway.cycleway" priority="1" numLanes="1" speed="5.56" allow="bicycle" oneway="0" width="2.00"/>
    <type id="highway.footway" priority="1" numLanes="1" speed="2.78" allow="pedestrian" oneway="1" width="2.00"/>
    <type id="highway.living_street" priority="2" numLanes="1" speed="2.78" disallow="tram rail_urban rail rail_electric rail_fast ship" oneway="0"/>
    <type id="highway.pedestrian" priority="1" numLanes="1" speed="2.78" allow="pedestrian" oneway="1" width="2.00"/>
    <type id="highway.primary" priority="12" numLanes="2" speed="27.78" disallow="tram rail_urban rail rail_electric rail_fast ship" oneway="0"/>
    <type id="highway.primary_link" priority="7" numLanes="1" speed="22.22" disallow="tram rail_urban rail rail_electric rail_fast ship" oneway="0"/>
    <type id="highway.residential" priority="3" numLanes="1" speed="13.89" disallow="tram rail_urban rail rail_electric rail_fast ship" oneway="0"/>
    <type id="highway.secondary" priority="11" numLanes="1" speed="27.78" disallow="tram rail_urban rail rail_electric rail_fast ship" oneway="0"/>
    <type id="highway.service" priority="1" numLanes="1" speed="5.56" allow="pedestrian delivery bicycle" oneway="0"/>
    <type id="highway.steps" priority="1" numLanes="1" speed="1.39" allow="pedestrian" oneway="1" width="2.00"/>
    <type id="highway.tertiary" priority="10" numLanes="1" speed="22.22" disallow="tram rail_urban rail rail_electric rail_fast ship" oneway="0"/>
    <type id="highway.unclassified" priority="4" numLanes="1" speed="13.89" disallow="tram rail_urban rail rail_electric rail_fast ship" oneway="0"/>
    <type id="railway.subway" priority="18" numLanes="1" speed="27.78" allow="passenger" oneway="1"/>

    <edge id=":10003844045_0" function="internal">
        <lane id=":10003844045_0_0" index="0" disallow="tram rail_urban rail rail_electric rail_fast ship" speed="5.47" length="1.55" shape="844.72,548.58 845.31,549.49"/>
        <lane id=":10003844045_0_1" index="1" disallow="tram rail_urban rail rail_electric rail_fast ship" speed="7.23" length="1.55" shape="847.35,550.41 846.76,552.34"/>
    </edge>
    <edge id=":10003844045_2" function="internal">
        <lane id=":10003844045_2_0" index="0" disallow="tram rail_urban rail rail_electric rail_fast ship" speed="3.65" length="1.31" shape="847.35,550.41 847.32,551.72"/>
    </edge>
    <edge id=":10003844045_6" function="internal">
        <lane id=":10003844045_6_0" index="0" disallow="tram rail_urban rail rail_electric rail_fast ship" speed="3.65" length="3.36" shape="847.32,551.72 847.32,551.85 847.75,552.63 848.64,552.76 849.98,552.23"/>
    </edge>
    <edge id=":10003844045_3" function="internal">
        <lane id=":10003844045_3_0" index="0" disallow="tram rail_urban rail rail_electric rail_fast ship" speed="22.22" length="1.17" shape="852.28,553.62 852.61,554.06"/>
        <lane id=":10003844045_3_1" index="1" disallow="tram rail_urban rail rail_electric rail_fast ship" speed="5.55" length="1.17" shape="849.08,553.72 849.14,553.22 849.33,552.92 849.63,552.64 849.98,552.23"/>
    </edge>
    <edge id=":10003844045_5" function="internal">
        <lane id=":10003844045_5_0" index="0" disallow="tram rail_urban rail rail_electric rail_fast ship" speed="3.94" length="2.77" shape="849.08,553.72 848.91,552.69 848.46,552.11 847.75,552.00 847.48,552.09"/>
    </edge>
    <edge id=":10003844045_7" function="internal">
        <lane id=":10003844045_7_0" index="0" disallow="tram rail_urban rail rail_electric rail_fast ship" speed="3.94" length="0.77" shape="847.48,552.09 846.76,552.34"/>
    </edge>
    <edge id=":10011171717_0" function="internal">
        <lane id=":10011171717_0_0" index="0" disallow="tram rail_urban rail rail_electric rail_fast ship" speed="13.89" length="9.40" shape="254.34,1179.91 254.34,1170.52"/>
    </edge>
    <edge id=":10011171717_1" function="internal">
        <lane id=":10011171717_1_0" index="0" allow="pedestrian delivery bicycle" speed="5.96" length="8.12" shape="254.34,1179.91 254.05,1177.09 253.32,1175.15 252.15,1174.09 250.53,1173.91"/>
    </edge>
    <edge id=":10011171717_2" function="internal">
        <lane id=":10011171717_2_0" index="0" allow="pedestrian delivery bicycle" speed="6.55" length="7.98" shape="251.00,1177.08 252.41,1176.49 253.44,1175.21 254.08,1173.21 254.34,1170.52"/>
    </edge>
    <edge id=":10011171717_3" function="internal">
        <lane id=":10011171717_3_0" index="0" allow="pedestrian delivery bicycle" speed="3.65" length="4.67" shape="251.00,1177.08 252.07,1176.12 252.35,1175.27 251.84,1174.53 250.53,1173.91"/>
    </edge>
    <edge id=":10011171718_0" function="internal">
        <lane id=":10011171718_0_0" index="0" allow="pedestrian delivery bicycle" speed="5.29" length="5.24" shape="357.21,1104.49 358.71,1104.48 359.88,1104.88 360.71,1105.71 361.20,1106.95"/>
    </edge>
    <edge id=":10011171718_1" function="internal">
        <lane id=":10011171718_1_0" index="0" allow="pedestrian delivery bicycle" speed="3.65" length="4.67" shape="357.21,1104.49 358.29,1103.54 358.59,1102.69 358.08,1101.95 356.79,1101.32"/>
    </edge>
    <edge id=":10011171718_2" function="internal">
        <lane id=":10011171718_2_0" index="0" allow="pedestrian delivery bicycle" speed="4.99" length="5.05" shape="359.38,1097.78 359.43,1099.17 359.01,1100.23 358.13,1100.94 356.79,1101.32"/>
    </edge>
    <edge id=":10011171718_3" function="internal">
        <lane id=":10011171718_3_0" index="0" disallow="tram rail_urban rail rail_electric rail_fast ship" speed="13.89" length="9.34" shape="359.38,1097.78 361.20,1106.95"/>
    </edge>
    <edge id=":10011171719_0" function="internal">
        <lane id=":10011171719_0_0" index="0" allow="pedestrian delivery bicycle" speed="3.65" length="4.67" shape="319.23,1106.26 318.15,1107.21 317.85,1108.06 318.35,1108.80 319.65,1109.44"/>
    </edge>
    <edge id=":10011171720_0" function="internal">
        <lane id=":10011171720_0_0" index="0" disallow="tram rail_urban rail rail_electric rail_fast ship" speed="3.65" length="4.67" shape="311.71,1060.69 312.89,1059.86 313.27,1059.05 312.85,1058.26 311.63,1057.49"/>
    </edge>
    <edge id=":10011171722_0" function="internal">
        <lane id=":10011171722_0_0" index="0" allow="pedestrian delivery bicycle" speed="3.65" length="4.67" shape="323.15,1040.32 321.92,1041.07 321.49,1041.86 321.86,1042.67 323.03,1043.52"/>
    </edge>
    <edge id=":10011171728_0" function="internal">
        <lane id=":10011171728_0_0" index="0" allow="pedestrian delivery bicycle" speed="3.65" length="4.67" shape="334.99,967.59 334.04,968.67 333.87,969.55 334.46,970.22 335.83,970.67"/>
    </edge>
    <edge id=":10011171732_0" function="internal">
        <lane id=":10011171732_0_0" index="0" allow="pedestrian delivery bicycle" speed="5.08" length="4.96" shape="245.07,921.01 243.73,921.20 242.64,920.92 241.79,920.18 241.19,918.96"/>
    </edge>
    <edge id=":10011171732_1" function="internal">
        <lane id=":10011171732_1_0" index="0" allow="pedestrian delivery bicycle" speed="5.56" length="9.04" shape="245.07,921.01 242.50,921.77 240.76,922.38 239.10,923.18 236.78,924.52"/>
    </edge>
    <edge id=":10011171732_2" function="internal">
        <lane id=":10011171732_2_0" index="0" allow="pedestrian delivery bicycle" speed="3.65" length="4.67" shape="245.07,921.01 244.14,922.11 243.98,922.99 244.59,923.65 245.96,924.08"/>
    </edge>
    <edge id=":10011171732_3" function="internal">
        <lane id=":10011171732_3_0" index="0" allow="pedestrian delivery bicycle" speed="5.56" length="8.24" shape="238.40,927.27 240.52,926.06 242.03,925.33 243.62,924.77 245.96,924.08"/>
    </edge>
    <edge id=":10011171732_4" function="internal">
        <lane id=":10011171732_4_0" index="0" allow="pedestrian delivery bicycle" speed="5.56" length="9.59" shape="238.40,927.27 240.31,925.74 241.41,923.84 241.70,921.58 241.19,918.96"/>
    </edge>
    <edge id=":10011171732_5" function="internal">
        <lane id=":10011171732_5_0" index="0" allow="pedestrian delivery bicycle" speed="3.65" length="4.67" shape="238.40,927.27 239.03,925.98 238.97,925.08 238.22,924.60 236.78,924.52"/>
    </edge>
    <edge id=":10011171732_6" function="internal">
        <lane id=":10011171732_6_0" index="0" allow="pedestrian delivery bicycle" speed="5.53" length="5.20" shape="238.15,919.96 238.45,921.42 238.32,922.67 237.77,923.70 236.78,924.52"/>
    </edge>
    <edge id=":10011171732_7" function="internal">
        <lane id=":10011171732_7_0" index="0" allow="pedestrian delivery bicycle" speed="5.56" length="10.00" shape="238.15,919.96 239.36,922.41 241.06,923.91 243.26,924.47 245.96,924.08"/>
    </edge>
    <edge id=":10011171732_8" function="internal">
        <lane id=":10011171732_8_0" index="0" allow="pedestrian delivery bicycle" speed="3.65" length="4.67" shape="238.15,919.96 239.29,920.85 240.17,920.98 240.81,920.35 241.19,918.96"/>
    </edge>
    <edge id=":10011171733_0" function="internal">
        <lane id=":10011171733_0_0" index="0" allow="pedestrian delivery bicycle" speed="5.56" length="9.40" shape="315.27,907.11 312.40,898.16"/>
    </edge>
    <edge id=":10011171733_1" function="internal">
        <lane id=":10011171733_1_0" index="0" allow="pedestrian delivery bicycle" speed="5.56" length="7.79" shape="315.27,907.11 314.23,904.56 313.07,902.87 311.77,902.02 310.33,902.03"/>
    </edge>
    <edge id=":10011171733_2" function="internal">
        <lane id=":10011171733_2_0" index="0" allow="pedestrian delivery bicycle" speed="5.56" length="7.83" shape="311.23,905.11 312.46,904.33 313.07,902.92 313.05,900.86 312.40,898.16"/>
    </edge>
    <edge id=":10011171733_3" function="internal">
        <lane id=":10011171733_3_0" index="0" allow="pedestrian delivery bicycle" speed="3.65" length="4.67" shape="311.23,905.11 312.16,904.00 312.32,903.12 311.71,902.47 310.33,902.03"/>
    </edge>
    <edge id=":10011171747_0" function="internal">
        <lane id=":10011171747_0_0" index="0" allow="pedestrian delivery bicycle" speed="5.56" length="5.70" shape="570.94,624.99 570.24,623.47 569.97,622.35 569.94,621.17 570.00,619.48"/>
    </edge>
    <edge id=":10011171747_1" function="internal">
        <lane id=":10011171747_1_0" index="0" allow="pedestrian delivery bicycle" speed="5.56" length="5.45" shape="570.94,624.99 570.29,624.08 569.33,623.29 568.06,622.63 566.50,622.09"/>
    </edge>
    <edge id=":10011171749_0" function="internal">
        <lane id=":10011171749_0_0" index="0" allow="pedestrian delivery bicycle" speed="3.65" length="4.67" shape="410.46,736.60 409.38,737.55 409.08,738.40 409.59,739.14 410.88,739.78"/>
    </edge>
    <edge id=":10011171750_0" function="internal">
        <lane id=":10011171750_0_0" index="0" allow="pedestrian delivery bicycle" speed="4.78" length="5.42" shape="629.20,620.64 629.31,619.09 629.90,618.10 630.98,617.68 632.53,617.83"/>
    </edge>
    <edge id=":10011171750_1" function="internal">
        <lane id=":10011171750_1_0" index="0" allow="pedestrian delivery bicycle" speed="3.65" length="4.67" shape="629.20,620.64 628.32,619.50 627.49,619.16 626.72,619.61 626.01,620.86"/>
    </edge>
    <edge id=":10011171750_2" function="internal">
        <lane id=":10011171750_2_0" index="0" allow="pedestrian delivery bicycle" speed="6.31" length="6.47" shape="623.08,615.55 624.24,616.12 625.11,617.19 625.70,618.77 626.01,620.86"/>
    </edge>
    <edge id=":10011171750_3" function="internal">
        <lane id=":10011171750_3_0" index="0" disallow="tram rail_urban rail rail_electric rail_fast ship" speed="27.78" length="9.71" shape="623.08,615.55 632.53,617.83"/>
        <lane id=":10011171750_3_1" index="1" disallow="tram rail_urban rail rail_electric rail_fast ship" speed="27.78" length="9.71" shape="623.83,612.44 633.28,614.72"/>
    </edge>
    <edge id=":10011171751_0" function="internal">
        <lane id=":10011171751_0_0" index="0" allow="pedestrian delivery bicycle" speed="3.65" length="4.67" shape="632.21,711.02 633.09,712.16 633.92,712.51 634.69,712.05 635.41,710.80"/>
    </edge>
    <edge id=":10011171754_0" function="internal">
        <lane id=":10011171754_0_0" index="0" allow="pedestrian delivery bicycle" speed="5.03" length="5.01" shape="399.88,623.22 398.51,623.20 397.47,622.75 396.78,621.86 396.42,620.53"/>
    </edge>
    <edge id=":10011171754_1" function="internal">
        <lane id=":10011171754_1_0" index="0" allow="pedestrian delivery bicycle" speed="5.56" length="10.11" shape="399.88,623.22 397.20,623.96 395.36,625.36 394.38,627.43 394.26,630.15"/>
    </edge>
    <edge id=":10011171754_2" function="internal">
        <lane id=":10011171754_2_0" index="0" allow="pedestrian delivery bicycle" speed="3.65" length="4.67" shape="399.88,623.22 398.80,624.17 398.50,625.01 399.00,625.75 400.30,626.39"/>
    </edge>
    <edge id=":10011171754_3" function="internal">
        <lane id=":10011171754_3_0" index="0" allow="pedestrian delivery bicycle" speed="5.12" length="5.07" shape="397.44,629.84 397.51,628.49 398.01,627.46 398.94,626.76 400.30,626.39"/>
    </edge>
    <edge id=":10011171754_4" function="internal">
        <lane id=":10011171754_4_0" index="0" allow="pedestrian delivery bicycle" speed="5.56" length="9.36" shape="397.44,629.84 396.42,620.53"/>
    </edge>
    <edge id=":10011171754_5" function="internal">
        <lane id=":10011171754_5_0" index="0" allow="pedestrian delivery bicycle" speed="3.65" length="4.67" shape="397.44,629.84 396.53,628.72 395.69,628.40 394.94,628.88 394.26,630.15"/>
    </edge>
    <edge id=":10011171754_6" function="internal">
        <lane id=":10011171754_6_0" index="0" allow="pedestrian delivery bicycle" speed="5.56" length="9.29" shape="393.24,620.92 394.26,630.15"/>
    </edge>
    <edge id=":10011171754_7" function="internal">
        <lane id=":10011171754_7_0" index="0" allow="pedestrian delivery bicycle" speed="5.56" length="10.21" shape="393.24,620.92 393.97,623.62 395.39,625.44 397.50,626.36 400.30,626.39"/>
    </edge>
    <edge id=":10011171754_8" function="internal">
        <lane id=":10011171754_8_0" index="0" allow="pedestrian delivery bicycle" speed="3.65" length="4.67" shape="393.24,620.92 394.18,622.01 395.02,622.31 395.77,621.82 396.42,620.53"/>
    </edge>
    <edge id=":10011206048_0" function="internal">
        <lane id=":10011206048_0_0" index="0" allow="pedestrian delivery bicycle" speed="3.65" length="4.67" shape="246.97,653.79 246.03,654.89 245.86,655.76 246.46,656.43 247.83,656.87"/>
    </edge>
    <edge id=":10011206052_0" function="internal">
        <lane id=":10011206052_0_0" index="0" allow="pedestrian delivery bicycle" speed="5.56" length="9.38" shape="238.67,666.50 237.85,657.15"/>
    </edge>
    <edge id=":10011206052_1" function="internal">
        <lane id=":10011206052_1_0" index="0" allow="pedestrian delivery bicycle" speed="5.56" length="7.80" shape="238.67,666.50 238.21,663.76 237.44,661.86 236.34,660.79 234.92,660.54"/>
    </edge>
    <edge id=":10011206052_2" function="internal">
        <lane id=":10011206052_2_0" index="0" allow="pedestrian delivery bicycle" speed="5.56" length="7.77" shape="235.27,663.72 236.59,663.19 237.46,661.91 237.88,659.90 237.85,657.15"/>
    </edge>
    <edge id=":10011206052_3" function="internal">
        <lane id=":10011206052_3_0" index="0" allow="pedestrian delivery bicycle" speed="3.65" length="4.67" shape="235.27,663.72 236.38,662.80 236.69,661.96 236.20,661.21 234.92,660.54"/>
    </edge>
    <edge id=":10011206053_0" function="internal">
        <lane id=":10011206053_0_0" index="0" allow="pedestrian delivery bicycle" speed="5.56" length="7.77" shape="203.37,664.00 202.06,664.54 201.21,665.82 200.85,667.84 200.96,670.60"/>
    </edge>
    <edge id=":10011206053_1" function="internal">
        <lane id=":10011206053_1_0" index="0" allow="pedestrian delivery bicycle" speed="3.65" length="4.67" shape="203.37,664.00 202.27,664.93 201.96,665.76 202.44,666.52 203.72,667.18"/>
    </edge>
    <edge id=":10011206053_2" function="internal">
        <lane id=":10011206053_2_0" index="0" allow="pedestrian delivery bicycle" speed="5.56" length="9.41" shape="199.96,661.24 200.96,670.60"/>
    </edge>
    <edge id=":10011206053_3" function="internal">
        <lane id=":10011206053_3_0" index="0" allow="pedestrian delivery bicycle" speed="5.56" length="7.78" shape="199.96,661.24 200.44,663.97 201.22,665.87 202.32,666.94 203.72,667.18"/>
    </edge>
    <edge id=":10011206059_0" function="internal">
        <lane id=":10011206059_0_0" index="0" allow="pedestrian delivery bicycle" speed="5.56" length="9.24" shape="92.63,637.42 83.56,639.19"/>
    </edge>
    <edge id=":10011206059_1" function="internal">
        <lane id=":10011206059_1_0" index="0" allow="pedestrian delivery bicycle" speed="5.56" length="9.76" shape="92.63,637.42 90.01,638.34 88.31,639.82 87.53,641.84 87.68,644.40"/>
    </edge>
    <edge id=":10011206059_2" function="internal">
        <lane id=":10011206059_2_0" index="0" allow="pedestrian delivery bicycle" speed="3.65" length="4.67" shape="92.63,637.42 91.62,638.45 91.40,639.31 91.96,640.01 93.30,640.55"/>
    </edge>
    <edge id=":10011206059_3" function="internal">
        <lane id=":10011206059_3_0" index="0" allow="pedestrian delivery bicycle" speed="4.88" length="4.61" shape="90.81,643.74 90.76,642.59 91.16,641.67 92.00,640.99 93.30,640.55"/>
    </edge>
    <edge id=":10011206059_4" function="internal">
        <lane id=":10011206059_4_0" index="0" allow="pedestrian delivery bicycle" speed="5.56" length="9.68" shape="90.81,643.74 89.91,641.35 88.40,639.79 86.29,639.07 83.56,639.19"/>
    </edge>
    <edge id=":10011206059_5" function="internal">
        <lane id=":10011206059_5_0" index="0" allow="pedestrian delivery bicycle" speed="3.65" length="4.67" shape="90.81,643.74 89.77,642.73 88.91,642.51 88.21,643.07 87.68,644.40"/>
    </edge>
    <edge id=":10011206059_6" function="internal">
        <lane id=":10011206059_6_0" index="0" allow="pedestrian delivery bicycle" speed="4.94" length="4.65" shape="84.12,642.34 85.47,642.27 86.51,642.59 87.25,643.30 87.68,644.40"/>
    </edge>
    <edge id=":10011206059_7" function="internal">
        <lane id=":10011206059_7_0" index="0" allow="pedestrian delivery bicycle" speed="5.56" length="9.35" shape="84.12,642.34 93.30,640.55"/>
    </edge>
    <edge id=":10011206059_8" function="internal">
        <lane id=":10011206059_8_0" index="0" allow="pedestrian delivery bicycle" speed="3.65" length="4.67" shape="84.12,642.34 85.17,641.34 85.42,640.48 84.89,639.77 83.56,639.19"/>
    </edge>
    <edge id=":10011206060_0" function="internal">
        <lane id=":10011206060_0_0" index="0" allow="pedestrian delivery bicycle" speed="3.65" length="4.67" shape="30.80,597.33 29.80,596.29 28.94,596.03 28.22,596.57 27.64,597.89"/>
    </edge>
    <edge id=":10011206065_0" function="internal">
        <lane id=":10011206065_0_0" index="0" allow="pedestrian delivery bicycle" speed="4.82" length="4.58" shape="17.61,668.71 16.24,668.87 15.18,668.62 14.45,667.97 14.04,666.91"/>
    </edge>
    <edge id=":10011206065_1" function="internal">
        <lane id=":10011206065_1_0" index="0" allow="pedestrian delivery bicycle" speed="3.65" length="4.67" shape="10.90,667.54 11.92,668.56 12.78,668.80 13.49,668.25 14.04,666.91"/>
    </edge>
    <edge id=":10017284520_0" function="internal">
        <lane id=":10017284520_0_0" index="0" disallow="tram rail_urban rail rail_electric rail_fast ship" speed="3.65" length="4.67" shape="292.96,810.76 291.97,811.81 291.76,812.68 292.33,813.37 293.68,813.88"/>
    </edge>
    <edge id=":10017284521_0" function="internal">
        <lane id=":10017284521_0_0" index="0" disallow="tram rail_urban rail rail_electric rail_fast ship" speed="13.89" length="14.40" shape="326.36,812.12 323.36,798.04"/>
    </edge>
    <edge id=":10017284521_1" function="internal">
        <lane id=":10017284521_1_0" index="0" disallow="tram rail_urban rail rail_electric rail_fast ship" speed="7.97" length="4.08" shape="326.36,812.12 325.01,808.45 324.90,808.33"/>
    </edge>
    <edge id=":10017284521_2" function="internal">
        <lane id=":10017284521_2_0" index="0" disallow="tram rail_urban rail rail_electric rail_fast ship" speed="3.65" length="1.44" shape="326.36,812.12 325.33,811.12"/>
    </edge>
    <edge id=":10017284521_9" function="internal">
        <lane id=":10017284521_9_0" index="0" disallow="tram rail_urban rail rail_electric rail_fast ship" speed="7.97" length="10.18" shape="324.90,808.33 322.80,806.11 319.75,805.11 315.85,805.44"/>
    </edge>
    <edge id=":10017284521_10" function="internal">
        <lane id=":10017284521_10_0" index="0" disallow="tram rail_urban rail rail_electric rail_fast ship" speed="3.65" length="3.23" shape="325.33,811.12 324.46,810.89 323.76,811.45 323.23,812.79"/>
    </edge>
    <edge id=":10017284521_3" function="internal">
        <lane id=":10017284521_3_0" index="0" disallow="tram rail_urban rail rail_electric rail_fast ship" speed="6.47" length="9.03" shape="316.57,808.56 319.04,808.35 320.98,808.98 322.37,810.46 323.23,812.79"/>
    </edge>
    <edge id=":10017284521_4" function="internal">
        <lane id=":10017284521_4_0" index="0" disallow="tram rail_urban rail rail_electric rail_fast ship" speed="8.06" length="14.22" shape="316.57,808.56 320.22,807.15 322.57,804.93 323.62,801.90 323.36,798.04"/>
    </edge>
    <edge id=":10017284521_5" function="internal">
        <lane id=":10017284521_5_0" index="0" disallow="tram rail_urban rail rail_electric rail_fast ship" speed="3.65" length="4.67" shape="316.57,808.56 317.56,807.51 317.77,806.64 317.20,805.95 315.85,805.44"/>
    </edge>
    <edge id=":10017284521_6" function="internal">
        <lane id=":10017284521_6_0" index="0" disallow="tram rail_urban rail rail_electric rail_fast ship" speed="6.58" length="9.13" shape="320.23,798.71 320.39,801.17 319.71,803.12 318.20,804.54 315.85,805.44"/>
    </edge>
    <edge id=":10017284521_7" function="internal">
        <lane id=":10017284521_7_0" index="0" disallow="tram rail_urban rail rail_electric rail_fast ship" speed="13.89" length="14.40" shape="320.23,798.71 323.23,812.79"/>
    </edge>
    <edge id=":10017284521_8" function="internal">
        <lane id=":10017284521_8_0" index="0" disallow="tram rail_urban rail rail_electric rail_fast ship" speed="3.65" length="1.44" shape="320.23,798.71 321.26,799.72"/>
    </edge>
    <edge id=":10017284521_11" function="internal">
        <lane id=":10017284521_11_0" index="0" disallow="tram rail_urban rail rail_electric rail_fast ship" speed="3.65" length="3.23" shape="321.26,799.72 322.13,799.94 322.83,799.38 323.36,798.04"/>
    </edge>
    <edge id=":10019808194_0" function="internal">
        <lane id=":10019808194_0_0" index="0" allow="pedestrian delivery bicycle" speed="3.65" length="4.67" shape="21.33,285.47 21.00,284.06 20.40,283.40 19.51,283.49 18.33,284.33"/>
    </edge>
    <edge id=":10019823271_0" function="internal">
        <lane id=":10019823271_0_0" index="0" allow="pedestrian delivery bicycle" speed="5.05" length="5.01" shape="41.20,549.32 39.83,549.31 38.78,548.87 38.07,547.99 37.69,546.68"/>
    </edge>
    <edge id=":10019823271_1" function="internal">
        <lane id=":10019823271_1_0" index="0" allow="pedestrian delivery bicycle" speed="6.86" length="10.17" shape="41.20,549.32 38.52,550.09 36.73,551.53 35.84,553.65 35.83,556.43"/>
    </edge>
    <edge id=":10019823271_2" function="internal">
        <lane id=":10019823271_2_0" index="0" allow="pedestrian delivery bicycle" speed="3.65" length="4.67" shape="41.20,549.32 40.12,550.28 39.84,551.12 40.34,551.86 41.64,552.49"/>
    </edge>
    <edge id=":10019823271_3" function="internal">
        <lane id=":10019823271_3_0" index="0" allow="pedestrian delivery bicycle" speed="5.04" length="5.00" shape="39.00,555.99 39.00,554.62 39.45,553.58 40.32,552.87 41.64,552.49"/>
    </edge>
    <edge id=":10019823271_4" function="internal">
        <lane id=":10019823271_4_0" index="0" disallow="tram rail_urban rail rail_electric rail_fast ship" speed="13.89" length="9.40" shape="39.00,555.99 37.69,546.68"/>
    </edge>
    <edge id=":10019823271_5" function="internal">
        <lane id=":10019823271_5_0" index="0" disallow="tram rail_urban rail rail_electric rail_fast ship" speed="13.89" length="9.40" shape="34.52,547.13 35.83,556.43"/>
    </edge>
    <edge id=":10019823271_6" function="internal">
        <lane id=":10019823271_6_0" index="0" allow="pedestrian delivery bicycle" speed="6.87" length="3.26" shape="34.52,547.13 35.29,549.80 35.60,550.17"/>
    </edge>
    <edge id=":10019823271_7" function="internal">
        <lane id=":10019823271_7_0" index="0" allow="pedestrian delivery bicycle" speed="6.87" length="6.90" shape="35.60,550.17 36.74,551.58 38.86,552.48 41.64,552.49"/>
    </edge>
    <edge id=":10019834946_0" function="internal">
        <lane id=":10019834946_0_0" index="0" allow="bicycle" speed="5.56" length="6.92" shape="669.00,387.38 669.40,385.56 669.17,383.98 668.30,382.63 666.81,381.52"/>
    </edge>
    <edge id=":10019834946_1" function="internal">
        <lane id=":10019834946_1_0" index="0" allow="pedestrian delivery bicycle" speed="3.65" length="1.44" shape="669.00,387.38 668.67,385.98"/>
    </edge>
    <edge id=":10019834946_3" function="internal">
        <lane id=":10019834946_3_0" index="0" allow="pedestrian delivery bicycle" speed="3.65" length="3.23" shape="668.67,385.98 668.05,385.33 667.17,385.43 666.00,386.28"/>
    </edge>
    <edge id=":10019834946_2" function="internal">
        <lane id=":10019834946_2_0" index="0" allow="bicycle" speed="3.92" length="2.31" shape="665.27,384.33 665.77,384.70 666.05,385.15 666.13,385.67 666.00,386.28"/>
    </edge>
    <edge id=":10019836594_0" function="internal">
        <lane id=":10019836594_0_0" index="0" allow="pedestrian delivery bicycle" speed="5.56" length="9.59" shape="670.33,258.69 661.11,256.04"/>
    </edge>
    <edge id=":10019836594_1" function="internal">
        <lane id=":10019836594_1_0" index="0" allow="bicycle" speed="5.56" length="10.41" shape="670.33,258.69 667.91,258.43 665.69,259.09 663.67,260.67 661.85,263.17"/>
    </edge>
    <edge id=":10019836594_2" function="internal">
        <lane id=":10019836594_2_0" index="0" allow="pedestrian delivery bicycle" speed="3.65" length="4.67" shape="670.33,258.69 668.95,259.13 668.35,259.79 668.51,260.67 669.44,261.77"/>
    </edge>
    <edge id=":10019836594_3" function="internal">
        <lane id=":10019836594_3_0" index="0" allow="bicycle" speed="5.56" length="6.14" shape="664.61,264.78 665.74,263.18 666.92,262.14 668.15,261.67 669.44,261.77"/>
    </edge>
    <edge id=":10019836594_4" function="internal">
        <lane id=":10019836594_4_0" index="0" allow="bicycle" speed="5.56" length="11.48" shape="664.61,264.78 665.84,261.75 665.66,259.29 664.09,257.38 661.11,256.04"/>
    </edge>
    <edge id=":10019836594_5" function="internal">
        <lane id=":10019836594_5_0" index="0" allow="bicycle" speed="3.65" length="4.67" shape="664.61,264.78 664.53,263.34 664.04,262.59 663.14,262.53 661.85,263.17"/>
    </edge>
    <edge id=":10019836594_6" function="internal">
        <lane id=":10019836594_6_0" index="0" allow="bicycle" speed="4.82" length="5.32" shape="660.22,259.11 661.60,259.74 662.33,260.62 662.42,261.76 661.85,263.17"/>
    </edge>
    <edge id=":10019836594_7" function="internal">
        <lane id=":10019836594_7_0" index="0" allow="pedestrian delivery bicycle" speed="5.56" length="9.60" shape="660.22,259.11 669.44,261.77"/>
    </edge>
    <edge id=":10019836594_8" function="internal">
        <lane id=":10019836594_8_0" index="0" allow="pedestrian delivery bicycle" speed="3.65" length="4.67" shape="660.22,259.11 661.60,258.68 662.20,258.02 662.04,257.14 661.11,256.04"/>
    </edge>
    <edge id=":10019836596_0" function="internal">
        <lane id=":10019836596_0_0" index="0" allow="bicycle" speed="3.65" length="4.67" shape="630.26,338.99 631.37,339.91 632.25,340.06 632.90,339.45 633.32,338.07"/>
    </edge>
    <edge id=":10019837169_0" function="internal">
        <lane id=":10019837169_0_0" index="0" allow="bicycle" speed="5.22" length="5.06" shape="534.14,183.02 533.71,184.27 532.94,185.12 531.85,185.57 530.44,185.62"/>