<?xml version='1.0' encoding='utf-8'?>
<routes xmlns:xsi="http://www.w3.org/2001/XMLSchema-instance" xsi:noNamespaceSchemaLocation="http://sumo.dlr.de/xsd/routes_file.xsd">
    <trip id="0" depart="0" from="169709329#5" to="-1103062099#1" />
    <trip id="1" depart="3.599999999998545" from="-26284183#2" to="-26284129#7" />
    <trip id="2" depart="7.200000000000728" from="26284129#7" to="213042766#5" />
    <trip id="3" depart="10.799999999999272" from="491106117#3" to="-132907566#1" />
    <trip id="4" depart="14.400000000001455" from="-95857804#5" to="-1103062103" />
    <trip id="5" depart="18.0" from="-213042766#4" to="1227985795" />
    <trip id="6" depart="21.599999999998545" from="-1103062098#1" to="-217536593" />
    <trip id="7" depart="25.200000000000728" from="169711262#3" to="132907562#1" />
    <trip id="8" depart="28.799999999999272" from="-213042766#6" to="169709291#0" />
    <trip id="9" depart="32.400000000001455" from="36853688#1" to="-1093123616#1" />
    <trip id="10" depart="36.0" from="36257667#9" to="213087089" />
    <trip id="11" depart="39.599999999998545" from="-484510040#17" to="-169711276#0" />
    <trip id="12" depart="43.20000000000073" from="638541497#8" to="-553250634#1" />
    <trip id="13" depart="46.79999999999927" from="-1227950011" to="-147545754#1" />
    <trip id="14" depart="50.400000000001455" from="37111253#1" to="169709308#1" />
    <trip id="15" depart="54.0" from="366994282" to="26284129#8" />
    <trip id="16" depart="57.599999999998545" from="-49687940#3" to="132907563#3" />
    <trip id="17" depart="61.20000000000073" from="37110887#14" to="169709327#1" />
    <trip id="18" depart="64.79999999999927" from="464465205#0" to="147545754#2" />
    <trip id="19" depart="68.40000000000146" from="213042787#7" to="-112028496#1" />
    <trip id="20" depart="72.0" from="-213042787#0" to="-484510040#14" />
    <trip id="21" depart="75.59999999999854" from="-1126178462" to="-328837813#0" />
    <trip id="22" depart="79.20000000000073" from="-49685138" to="-217536623#0" />
    <trip id="23" depart="82.79999999999927" from="-26284129#5" to="638541497#15" />
    <trip id="24" depart="86.40000000000146" from="169711262#1" to="169709317#2" />
    <trip id="25" depart="90.0" from="-169709329#3" to="26284129#7" />
    <trip id="26" depart="93.59999999999854" from="796846477" to="169711262#7" />
    <trip id="27" depart="97.20000000000073" from="132907557#2" to="213042786#1" />
    <trip id="28" depart="100.79999999999927" from="37110904#1" to="346533014#0" />
    <trip id="29" depart="104.40000000000146" from="-213042787#1" to="-1103062105" />
    <trip id="30" depart="108.0" from="-37110889#1" to="-37110889#1" />
    <trip id="31" depart="111.59999999999854" from="-188444433#1" to="638541497#21" />
    <trip id="32" depart="115.20000000000073" from="484510040#16" to="-492441116#12" />
    <trip id="33" depart="118.79999999999927" from="169711262#9" to="1101271053" />
    <trip id="34" depart="122.40000000000146" from="-26284129#3" to="-37106518#1" />
    <trip id="35" depart="126.0" from="132907562#0" to="-37110887#6" />
    <trip id="36" depart="129.59999999999854" from="1447075496" to="492441116#8" />
    <trip id="37" depart="133.20000000000073" from="-688413055" to="-26284129#3" />
    <trip id="38" depart="136.79999999999927" from="95857804#5" to="1259587204#1" />
    <trip id="39" depart="140.40000000000146" from="-1199463384" to="-112028496#2" />
    <trip id="40" depart="144.0" from="-132907559#1" to="169709329#6" />
    <trip id="41" depart="147.59999999999854" from="36257667#13" to="1103062104#0" />
    <trip id="42" depart="151.20000000000073" from="-1104891073#0" to="1058623187#4" />
    <trip id="43" depart="154.79999999999927" from="95857804#4" to="131388427#6" />
    <trip id="44" depart="158.40000000000146" from="705674505#0" to="484510040#0" />
    <trip id="45" depart="162.0" from="-1103060077" to="26283801#3" />
    <trip id="46" depart="165.59999999999854" from="188444433#1" to="132907557#0" />
    <trip id="47" depart="169.20000000000073" from="-26284129#4" to="169711262#9" />
    <trip id="48" depart="172.79999999999927" from="-132907562#1" to="1103089070" />
    <trip id="49" depart="176.40000000000146" from="1103060084" to="638541497#7" />
    <trip id="50" depart="180.0" from="484510040#16" to="-37110887#6" />
    <trip id="51" depart="183.59999999999854" from="49687940#10" to="484510040#2" />
    <trip id="52" depart="187.20000000000073" from="-37106535#2" to="169711262#6" />
    <trip id="53" depart="190.79999999999927" from="169709296" to="-169711272#1" />
    <trip id="54" depart="194.40000000000146" from="328349209#6" to="132907557#2" />
    <trip id="55" depart="198.0" from="342001778#2" to="131388427#7" />
    <trip id="56" depart="201.59999999999854" from="-1053381286#0" to="-49685138" />
    <trip id="57" depart="205.20000000000073" from="-1103060083" to="638541497#1" />
    <trip id="58" depart="208.79999999999927" from="484510040#4" to="37110889#0" />
    <trip id="59" depart="212.40000000000146" from="-37110887#4" to="-1167882452" />
    <trip id="60" depart="216.0" from="484510040#4" to="638541497#24" />
    <trip id="61" depart="219.59999999999854" from="-1165563351" to="112028497#1" />
    <trip id="62" depart="223.20000000000073" from="-112028496#1" to="328349209#9" />
    <trip id="63" depart="226.79999999999927" from="328349209#9" to="-169709329#0" />
    <trip id="64" depart="230.40000000000146" from="1103089069" to="132907563#1" />
    <trip id="65" depart="234.0" from="-26284129#3" to="484510040#4" />
    <trip id="66" depart="237.59999999999854" from="-95857804#6" to="-217536625#1" />
    <trip id="67" depart="241.20000000000073" from="1312070497" to="26284129#8" />
    <trip id="68" depart="244.79999999999927" from="-169711281#0" to="-492441116#10" />
    <trip id="69" depart="248.40000000000146" from="95857804#4" to="169711276#0" />
    <trip id="70" depart="252.0" from="1058623188#0" to="130121747#3" />
    <trip id="71" depart="255.59999999999854" from="-132907563#5" to="-26284129#8" />
    <trip id="72" depart="259.2000000000007" from="-484510040#15" to="169709291#0" />
    <trip id="73" depart="262.7999999999993" from="-213042787#2" to="-26284129#4" />
    <trip id="74" depart="266.40000000000146" from="-112028496#3" to="169709337#0" />
    <trip id="75" depart="270.0" from="-213042787#1" to="49687766" />
    <trip id="76" depart="273.59999999999854" from="437169586#0" to="-132907557#2" />
    <trip id="77" depart="277.2000000000007" from="-213042787#9" to="188444433#1" />
    <trip id="78" depart="280.7999999999993" from="-213042766#0" to="-169709329#4" />
    <trip id="79" depart="284.40000000000146" from="638541497#12" to="138980166#1" />
    <trip id="80" depart="288.0" from="1103080112" to="36257667#12" />
    <trip id="81" depart="291.59999999999854" from="366994282" to="-213042787#5" />
    <trip id="82" depart="295.2000000000007" from="-128515257#2" to="1103089067" />
    <trip id="83" depart="298.7999999999993" from="-95857807" to="1112419801#1" />
    <trip id="84" depart="302.40000000000146" from="26283801#3" to="213042766#2" />
    <trip id="85" depart="306.0" from="796846456#2" to="-169709291#1" />
    <trip id="86" depart="309.59999999999854" from="-688413056#1" to="-603115724#2" />
    <trip id="87" depart="313.2000000000007" from="437169586#1" to="-37106535#0" />
    <trip id="88" depart="316.7999999999993" from="-95857804#5" to="-437169584#1" />
    <trip id="89" depart="320.40000000000146" from="1092308702#0" to="484510040#0" />
    <trip id="90" depart="324.0" from="131388427#8" to="-112028496#5" />
    <trip id="91" depart="327.59999999999854" from="995158260" to="37110904#1" />
    <trip id="92" depart="331.2000000000007" from="688413056#2" to="638541493#1" />
    <trip id="93" depart="334.7999999999993" from="38522161#1" to="-169711285#1" />
    <trip id="94" depart="338.40000000000146" from="1112419799#2" to="-217536626#0" />
    <trip id="95" depart="342.0" from="-688413056#0" to="-1167882452" />
    <trip id="96" depart="345.59999999999854" from="-49687940#3" to="796846472#0" />
    <trip id="97" depart="349.2000000000007" from="-26284129#3" to="36257667#11" />
    <trip id="98" depart="352.7999999999993" from="1103062094#0" to="1103062104#1" />
    <trip id="99" depart="356.40000000000146" from="638541497#8" to="95857804#6" />
    <trip id="100" depart="360.0" from="132907557#1" to="217536626#2" />
    <trip id="101" depart="363.59999999999854" from="-169709317#0" to="-484510040#8" />
    <trip id="102" depart="367.2000000000007" from="688413056#2" to="147545792" />
    <trip id="103" depart="370.7999999999993" from="131388427#1" to="327550407#9" />
    <trip id="104" depart="374.40000000000146" from="-1103089076" to="157571649#4" />
    <trip id="105" depart="378.0" from="-169709317#2" to="688353426#0" />
    <trip id="106" depart="381.59999999999854" from="-1126178462" to="-213042787#0" />
    <trip id="107" depart="385.2000000000007" from="157571649#2" to="213042766#3" />
    <trip id="108" depart="388.7999999999993" from="-213042787#7" to="-169709320#0" />
    <trip id="109" depart="392.40000000000146" from="491106117#2" to="-37106518#0" />
    <trip id="110" depart="396.0" from="157571649#1" to="169709327#2" />
    <trip id="111" depart="399.59999999999854" from="-95857804#3" to="157571649#4" />
    <trip id="112" depart="403.2000000000007" from="1167882452" to="638541497#13" />
    <trip id="113" depart="406.7999999999993" from="-169711283" to="217536626#0" />
    <trip id="114" depart="410.40000000000146" from="-213087089" to="1101271053" />
    <trip id="115" depart="414.0" from="-37110889#2" to="328349209#0" />
    <trip id="116" depart="417.59999999999854" from="95857804#6" to="95857804#6" />
    <trip id="117" depart="421.2000000000007" from="-112028496#4" to="-217536625#2" />
    <trip id="118" depart="424.7999999999993" from="-26284129#3" to="638541497#12" />
    <trip id="119" depart="428.40000000000146" from="484510040#8" to="489808264#1" />
    <trip id="120" depart="432.0" from="-492441116#9" to="-169711277" />
    <trip id="121" depart="435.59999999999854" from="37110887#6" to="217536594" />
    <trip id="122" depart="439.2000000000007" from="169709300#1" to="796846477" />
    <trip id="123" depart="442.7999999999993" from="169711262#7" to="-1093708745" />
    <trip id="124" depart="446.40000000000146" from="169711276#0" to="638541497#17" />
    <trip id="125" depart="450.0" from="-1447075497#1" to="-169709317#1" />
    <trip id="126" depart="453.59999999999854" from="-132907557#2" to="132907563#4" />
    <trip id="127" depart="457.2000000000007" from="-26284183#0" to="169709308#2" />
    <trip id="128" depart="460.7999999999993" from="217536623#1" to="-217536616#0" />
    <trip id="129" depart="464.40000000000146" from="169709329#0" to="-37110887#7" />
    <trip id="130" depart="468.0" from="1112419800#0" to="49687766" />
    <trip id="131" depart="471.59999999999854" from="37111253#0" to="-1447075497#0" />
    <trip id="132" depart="475.2000000000007" from="-95857807" to="-37111253#1" />
    <trip id="133" depart="478.7999999999993" from="-1058623188#1" to="342001778#1" />
    <trip id="134" depart="482.40000000000146" from="169709329#3" to="-37110887#5" />
    <trip id="135" depart="486.0" from="263812623#0" to="132907563#3" />
    <trip id="136" depart="489.59999999999854" from="1043378210#1" to="-1103060074" />
    <trip id="137" depart="493.2000000000007" from="-112028496#6" to="491106117#2" />
    <trip id="138" depart="496.7999999999993" from="492441116#7" to="132907562#2" />
    <trip id="139" depart="500.40000000000146" from="37110887#6" to="157571649#3" />
    <trip id="140" depart="504.0" from="-169709302#0" to="-169709327#2" />
    <trip id="141" depart="507.59999999999854" from="-37110887#4" to="492441116#9" />
    <trip id="142" depart="511.2000000000007" from="36257667#17" to="484510040#0" />
    <trip id="143" depart="514.7999999999993" from="492441116#2" to="-217536623#1" />
    <trip id="144" depart="518.4000000000015" from="-217536616#0" to="-169709293#2" />
    <trip id="145" depart="522.0" from="342001778#3" to="491106117#3" />
    <trip id="146" depart="525.5999999999985" from="-705674505#0" to="169709329#0" />
    <trip id="147" depart="529.2000000000007" from="-169709317#0" to="638541497#1" />
    <trip id="148" depart="532.7999999999993" from="464465205#3" to="727741257" />
    <trip id="149" depart="536.4000000000015" from="36853688#10" to="491106117#1" />
    <trip id="150" depart="540.0" from="-1103062098#0" to="311366225" />
    <trip id="151" depart="543.5999999999985" from="-484510040#1" to="638541497#10" />
    <trip id="152" depart="547.2000000000007" from="36257667#6" to="484510040#12" />
    <trip id="153" depart="550.7999999999993" from="36853688#10" to="-37110889#0" />
    <trip id="154" depart="554.4000000000015" from="36257667#1" to="-169709302#1" />
    <trip id="155" depart="558.0" from="484510040#13" to="464465205#3" />
    <trip id="156" depart="561.5999999999985" from="-213042783#0" to="37106535#3" />
    <trip id="157" depart="565.2000000000007" from="1103062098#0" to="-491106117#1" />
    <trip id="158" depart="568.7999999999993" from="36257667#15" to="-26284183#1" />
    <trip id="159" depart="572.4000000000015" from="-1103062097" to="-213042787#7" />
    <trip id="160" depart="576.0" from="-437169586#0" to="484510040#12" />
    <trip id="161" depart="579.5999999999985" from="688413056#0" to="-437169584#1" />
    <trip id="162" depart="583.2000000000007" from="169709329#7" to="1103060078" />
    <trip id="163" depart="586.7999999999993" from="763183692" to="132907555" />
    <trip id="164" depart="590.4000000000015" from="638541497#15" to="-169709317#1" />
    <trip id="165" depart="594.0" from="688413056#3" to="-213042766#5" />
    <trip id="166" depart="597.5999999999985" from="688353426#0" to="-37110887#9" />
    <trip id="167" depart="601.2000000000007" from="-132907559#0" to="1103089070" />
    <trip id="168" depart="604.7999999999993" from="26283801#3" to="-492441116#11" />
    <trip id="169" depart="608.4000000000015" from="169709293#1" to="128515257#1" />
    <trip id="170" depart="612.0" from="-603115724#1" to="147545754#1" />
    <trip id="171" depart="615.5999999999985" from="-217536623#1" to="217536619#1" />
    <trip id="172" depart="619.2000000000007" from="-1058623188#0" to="638541493#1" />
    <trip id="173" depart="622.7999999999993" from="263812623#1" to="188444433#3" />
    <trip id="174" depart="626.4000000000015" from="-492441116#5" to="-132907557#2" />
    <trip id="175" depart="630.0" from="169711276#1" to="-49687940#2" />
    <trip id="176" depart="633.5999999999985" from="-37110889#0" to="38685277#2" />
    <trip id="177" depart="637.2000000000007" from="217536625#2" to="-48557534" />
    <trip id="178" depart="640.7999999999993" from="-37110887#5" to="1103062095" />
    <trip id="179" depart="644.4000000000015" from="-688413056#1" to="-484510040#6" />
    <trip id="180" depart="648.0" from="-1350409192#1" to="1103062103" />
    <trip id="181" depart="651.5999999999985" from="638541497#16" to="213042766#5" />
    <trip id="182" depart="655.2000000000007" from="492441116#6" to="169709320#3" />
    <trip id="183" depart="658.7999999999993" from="-37110887#1" to="132907563#0" />
    <trip id="184" depart="662.4000000000015" from="-1053381286#0" to="-484510040#12" />
    <trip id="185" depart="666.0" from="1053381286#0" to="157571649#1" />
    <trip id="186" depart="669.5999999999985" from="1092308701#1" to="-217536626#0" />
    <trip id="187" depart="673.2000000000007" from="1103080112" to="49685139" />
    <trip id="188" depart="676.7999999999993" from="36257667#17" to="-173435223#0" />
    <trip id="189" depart="680.4000000000015" from="-1165563351" to="130121747#1" />
    <trip id="190" depart="684.0" from="169709327#2" to="-49687940#8" />
    <trip id="191" depart="687.5999999999985" from="37106518#1" to="327550409#1" />
    <trip id="192" depart="691.2000000000007" from="169711281#1" to="-26284129#8" />
    <trip id="193" depart="694.7999999999993" from="-169711279#0" to="-1103062099#0" />
    <trip id="194" depart="698.4000000000015" from="-217536594" to="1112419802#2" />
    <trip id="195" depart="702.0" from="38685277#0" to="-132907559#1" />
    <trip id="196" depart="705.5999999999985" from="-796846472#0" to="169709329#8" />
    <trip id="197" depart="709.2000000000007" from="-169711274" to="213042787#9" />
    <trip id="198" depart="712.7999999999993" from="1112419800#5" to="-369384574#0" />
    <trip id="199" depart="716.4000000000015" from="-132907557#2" to="1103062105" />
    <trip id="200" depart="720.0" from="-169709329#7" to="688351855#0" />
    <trip id="201" depart="723.5999999999985" from="112028502" to="-112028496#4" />
    <trip id="202" depart="727.2000000000007" from="-217536616#0" to="38685277#3" />
    <trip id="203" depart="730.7999999999993" from="1103062094#1" to="366994282" />
    <trip id="204" depart="734.4000000000015" from="157571649#2" to="638541497#4" />
    <trip id="205" depart="738.0" from="491106117#3" to="169709320#0" />
    <trip id="206" depart="741.5999999999985" from="217536625#1" to="1227950011" />
    <trip id="207" depart="745.2000000000007" from="37110887#3" to="132907563#0" />
    <trip id="208" depart="748.7999999999993" from="492441116#12" to="327550407#3" />
    <trip id="209" depart="752.4000000000015" from="1103080120" to="-37110887#3" />
    <trip id="210" depart="756.0" from="-217536611#0" to="169711262#5" />
    <trip id="211" depart="759.5999999999985" from="169709320#1" to="-37111253#0" />
    <trip id="212" depart="763.2000000000007" from="-26284129#8" to="-492441116#6" />
    <trip id="213" depart="766.7999999999993" from="131388427#0" to="-169709337#0" />
    <trip id="214" depart="770.4000000000015" from="-213042787#2" to="213042787#7" />
    <trip id="215" depart="774.0" from="213042787#9" to="-128515257#2" />
    <trip id="216" depart="777.5999999999985" from="-705674505#1" to="132907559#1" />
    <trip id="217" depart="781.2000000000007" from="-796846473" to="-217536619#0" />
    <trip id="218" depart="784.7999999999993" from="-95857804#4" to="49687766" />
    <trip id="219" depart="788.4000000000015" from="1447075496" to="213042787#8" />
    <trip id="220" depart="792.0" from="437169584#0" to="328837821#2" />
    <trip id="221" depart="795.5999999999985" from="-491106117#1" to="328349209#1" />
    <trip id="222" depart="799.2000000000007" from="38685277#3" to="638541497#6" />
    <trip id="223" depart="802.7999999999993" from="-95857804#3" to="327550407#8" />
    <trip id="224" depart="806.4000000000015" from="131388427#5" to="169709308#1" />
    <trip id="225" depart="810.0" from="-213042766#6" to="-26284129#4" />
    <trip id="226" depart="813.5999999999985" from="1058623187#5" to="-1103062102" />
    <trip id="227" depart="817.2000000000007" from="-484510040#13" to="213042767" />
    <trip id="228" depart="820.7999999999993" from="-688413056#3" to="-169711285#0" />
    <trip id="229" depart="824.4000000000015" from="1103062100" to="-169709329#0" />
    <trip id="230" depart="828.0" from="169709317#1" to="-1103062101" />
    <trip id="231" depart="831.5999999999985" from="-688351855#0" to="1354145734#2" />
    <trip id="232" depart="835.2000000000007" from="-1103062098#2" to="169711263#0" />
    <trip id="233" depart="838.7999999999993" from="-188444433#1" to="-49685141#1" />
    <trip id="234" depart="842.4000000000015" from="-217536619#1" to="-132907563#3" />
    <trip id="235" depart="846.0" from="-1103060083" to="132907557#2" />
    <trip id="236" depart="849.5999999999985" from="995158260" to="-688413056#1" />
    <trip id="237" depart="853.2000000000007" from="169711262#4" to="36257667#1" />
    <trip id="238" depart="856.7999999999993" from="169711262#5" to="328349209#11" />
    <trip id="239" depart="860.4000000000015" from="638541497#24" to="-217536593" />
    <trip id="240" depart="864.0" from="-1103060084" to="-169711272#1" />
    <trip id="241" depart="867.5999999999985" from="-1350409192#1" to="188444433#2" />
    <trip id="242" depart="871.2000000000007" from="132907562#2" to="-26284129#0" />
    <trip id="243" depart="874.7999999999993" from="213042787#2" to="331497720#0" />
    <trip id="244" depart="878.4000000000015" from="-169709329#0" to="169709317#0" />
    <trip id="245" depart="882.0" from="327550407#1" to="-169709317#0" />
    <trip id="246" depart="885.5999999999985" from="37106535#0" to="688413056#0" />
    <trip id="247" depart="889.2000000000007" from="-132907559#0" to="-1103062099#1" />
    <trip id="248" depart="892.7999999999993" from="-37110887#7" to="213042766#5" />
    <trip id="249" depart="896.4000000000015" from="638541497#8" to="1103060073" />
    <trip id="250" depart="900.0" from="217536616#1" to="-132907562#2" />
    <trip id="251" depart="903.5999999999985" from="213042767" to="169709329#6" />
    <trip id="252" depart="907.2000000000007" from="-132907551" to="342001778#2" />
    <trip id="253" depart="910.7999999999993" from="38685277#0" to="169709302#1" />
    <trip id="254" depart="914.4000000000015" from="-132907563#5" to="796846456#2" />
    <trip id="255" depart="918.0" from="346533014#0" to="-688413055" />
    <trip id="256" depart="921.5999999999985" from="1043378210#1" to="-95857804#5" />
    <trip id="257" depart="925.2000000000007" from="1112419802#2" to="-688192176" />
    <trip id="258" depart="928.7999999999993" from="38685277#0" to="37110887#14" />
    <trip id="259" depart="932.4000000000015" from="-132907557#1" to="688353426#1" />
    <trip id="260" depart="936.0" from="169709329#1" to="37110887#7" />
    <trip id="261" depart="939.5999999999985" from="213042787#9" to="1103089072" />
    <trip id="262" depart="943.2000000000007" from="26284129#5" to="688413056#0" />
    <trip id="263" depart="946.7999999999993" from="-26284129#7" to="36853688#8" />
    <trip id="264" depart="950.4000000000015" from="1058623187#4" to="26284183#1" />
    <trip id="265" depart="954.0" from="-26284129#6" to="437169584#1" />
    <trip id="266" depart="957.5999999999985" from="37110887#3" to="-132907566#1" />
    <trip id="267" depart="961.2000000000007" from="484510040#9" to="-346533014#2" />
    <trip id="268" depart="964.7999999999993" from="1103062099#0" to="169709317#4" />
    <trip id="269" depart="968.4000000000015" from="-49687940#3" to="-1103062102" />
    <trip id="270" depart="972.0" from="38685277#1" to="-213042783#1" />
    <trip id="271" depart="975.5999999999985" from="-188444433#2" to="36257667#8" />
    <trip id="272" depart="979.2000000000007" from="-484510040#2" to="491106117#0" />
    <trip id="273" depart="982.7999999999993" from="213042787#3" to="-37111253#1" />
    <trip id="274" depart="986.4000000000015" from="-1103060074" to="638541497#25" />
    <trip id="275" depart="990.0" from="-1165563351" to="26283801#1" />
    <trip id="276" depart="993.5999999999985" from="1112419800#0" to="328349209#7" />
    <trip id="277" depart="997.2000000000007" from="213042767" to="169711264" />
    <trip id="278" depart="1000.7999999999993" from="1112419800#3" to="36257667#4" />
    <trip id="279" depart="1004.4000000000015" from="-1227985795" to="-26284129#5" />
    <trip id="280" depart="1008.0" from="213042783#0" to="-491106117#1" />
    <trip id="281" depart="1011.5999999999985" from="323639494#1" to="-49687940#2" />
    <trip id="282" depart="1015.2000000000007" from="213042787#6" to="-37110904#1" />
    <trip id="283" depart="1018.7999999999993" from="-217536619#0" to="-169709320#1" />
    <trip id="284" depart="1022.4000000000015" from="-169711272#1" to="-169709320#0" />
    <trip id="285" depart="1026.0" from="-169711262#5" to="-217536626#2" />
    <trip id="286" depart="1029.5999999999985" from="1112419799#1" to="26284129#4" />
    <trip id="287" depart="1033.2000000000007" from="719664029#2" to="131388427#3" />
    <trip id="288" depart="1036.7999999999993" from="-169711274" to="-26284183#1" />
    <trip id="289" depart="1040.4000000000015" from="-169709337#1" to="-1103060084" />
    <trip id="290" depart="1044.0" from="719664029#0" to="132907563#4" />
    <trip id="291" depart="1047.5999999999985" from="213042787#0" to="-169709327#2" />
    <trip id="292" depart="1051.2000000000007" from="484510040#1" to="1148421491#1" />
    <trip id="293" depart="1054.7999999999993" from="484510040#14" to="1447075497#1" />
    <trip id="294" depart="1058.4000000000015" from="1103062103" to="1103089076" />
    <trip id="295" depart="1062.0" from="-169711262#4" to="-112028496#5" />
    <trip id="296" depart="1065.5999999999985" from="638541497#16" to="112028496#1" />
    <trip id="297" depart="1069.2000000000007" from="37106535#2" to="1103060078" />
    <trip id="298" depart="1072.7999999999993" from="-112028496#5" to="169709329#8" />
    <trip id="299" depart="1076.4000000000015" from="-1103089073" to="-169711263#0" />
    <trip id="300" depart="1080.0" from="132907562#1" to="-489808264#1" />
    <trip id="301" depart="1083.5999999999985" from="95857804#3" to="-169709317#4" />
    <trip id="302" depart="1087.2000000000007" from="328349209#8" to="169709310" />
    <trip id="303" depart="1090.7999999999993" from="36257667#12" to="-26284183#0" />
    <trip id="304" depart="1094.4000000000015" from="1092308701#1" to="464465205#4" />
    <trip id="305" depart="1098.0" from="796846477" to="-491106117#1" />
    <trip id="306" depart="1101.5999999999985" from="169709317#0" to="169709317#2" />
    <trip id="307" depart="1105.2000000000007" from="26284183#2" to="638541497#25" />
    <trip id="308" depart="1108.7999999999993" from="-169711285#2" to="-217536625#1" />
    <trip id="309" depart="1112.4000000000015" from="169711272#1" to="-169711277" />
    <trip id="310" depart="1116.0" from="-169709329#6" to="-132907562#1" />
    <trip id="311" depart="1119.5999999999985" from="157571649#1" to="-484510040#15" />
    <trip id="312" depart="1123.2000000000007" from="-213042787#3" to="217536616#0" />
    <trip id="313" depart="1126.7999999999993" from="36257667#1" to="169709329#5" />
    <trip id="314" depart="1130.4000000000015" from="169711274" to="638541497#12" />
    <trip id="315" depart="1134.0" from="-995158260" to="132907562#1" />
    <trip id="316" depart="1137.5999999999985" from="169711262#1" to="49687940#3" />
    <trip id="317" depart="1141.2000000000007" from="37110887#11" to="-132907559#0" />
    <trip id="318" depart="1144.7999999999993" from="-169709327#1" to="-491106117#3" />
    <trip id="319" depart="1148.4000000000015" from="327550407#1" to="1365989905" />
    <trip id="320" depart="1152.0" from="-346533014#0" to="-169709327#0" />
    <trip id="321" depart="1155.5999999999985" from="213042766#5" to="213087090" />
    <trip id="322" depart="1159.2000000000007" from="638541497#19" to="1182403954" />
    <trip id="323" depart="1162.7999999999993" from="1112419800#5" to="-132907563#2" />
    <trip id="324" depart="1166.4000000000015" from="-1103080111#0" to="1103089068" />
    <trip id="325" depart="1170.0" from="-37111253#0" to="-37106535#2" />
    <trip id="326" depart="1173.5999999999985" from="-1199463384" to="688353426#1" />
    <trip id="327" depart="1177.2000000000007" from="37110887#7" to="147545754#0" />
    <trip id="328" depart="1180.7999999999993" from="638541497#25" to="995441410" />
    <trip id="329" depart="1184.4000000000015" from="169711281#1" to="-37110889#2" />
    <trip id="330" depart="1188.0" from="-1103080111#0" to="328349209#6" />
    <trip id="331" depart="1191.5999999999985" from="1103062104#0" to="169711276#1" />
    <trip id="332" depart="1195.2000000000007" from="49687940#4" to="-213042783#1" />
    <trip id="333" depart="1198.7999999999993" from="1447075497#0" to="169711262#1" />
    <trip id="334" depart="1202.4000000000015" from="1112419800#3" to="-1447075496" />
    <trip id="335" depart="1206.0" from="-489808264#0" to="-49687940#4" />
    <trip id="336" depart="1209.5999999999985" from="169711280" to="464465205#2" />
    <trip id="337" depart="1213.2000000000007" from="-437169586#1" to="213042787#7" />
    <trip id="338" depart="1216.7999999999993" from="-346533014#0" to="638541497#23" />
    <trip id="339" depart="1220.4000000000015" from="36853688#4" to="132907563#1" />
    <trip id="340" depart="1224.0" from="1103062094#0" to="-492441116#12" />
    <trip id="341" depart="1227.5999999999985" from="-37111253#1" to="705674505#0" />
    <trip id="342" depart="1231.2000000000007" from="-688413056#3" to="130121747#0" />
    <trip id="343" depart="1234.7999999999993" from="796846472#0" to="169711281#0" />
    <trip id="344" depart="1238.4000000000015" from="131388427#2" to="1103062098#1" />
    <trip id="345" depart="1242.0" from="-169711262#7" to="-796846472#0" />
    <trip id="346" depart="1245.5999999999985" from="328349209#0" to="169709329#5" />
    <trip id="347" depart="1249.2000000000007" from="328349209#11" to="-217536616#0" />
    <trip id="348" depart="1252.7999999999993" from="131388427#7" to="638541495#1" />
    <trip id="349" depart="1256.4000000000015" from="1058623188#0" to="213087089" />
    <trip id="350" depart="1260.0" from="-132907566#0" to="719664029#1" />
    <trip id="351" depart="1263.5999999999985" from="169709296" to="-331497720#1" />
    <trip id="352" depart="1267.2000000000007" from="-169709317#4" to="132907563#2" />
    <trip id="353" depart="1270.7999999999993" from="132782110#1" to="-1447075497#1" />
    <trip id="354" depart="1274.4000000000015" from="95857804#0" to="49687940#8" />
    <trip id="355" depart="1278.0" from="1103062098#1" to="-169709317#2" />
    <trip id="356" depart="1281.5999999999985" from="37110887#4" to="1167882452" />
    <trip id="357" depart="1285.2000000000007" from="217536619#1" to="1259587204#1" />
    <trip id="358" depart="1288.7999999999993" from="-26284183#1" to="37110904#0" />