<?xml version="1.0" encoding="UTF-8"?>
<additional xmlns:xsi="http://www.w3.org/2001/XMLSchema-instance" xsi:noNamespaceSchemaLocation="http://sumo.dlr.de/xsd/additional_file.xsd">
    <vType id="subway" accel="1.0" decel="5.0" sigma="0.1" length="25" maxSpeed="30" guiShape="rail"/>
</additional>
